
VirtualMemory physical capacity: 8589934592 num_ppages: 2097152
VirtualMemory page size: 4096 log2_page_size: 12
VirtualMemory initalizing ppage free list ... done
VirtualMemory shuffling ppage free list ... done

 (TOTAL 523355 bits 511 Kbits) 
*** ChampSim Multicore Out-of-Order Simulator ***

Warmup Instructions: 50000000
Simulation Instructions: 50000000
Number of CPUs: 1
LLC sets: 2048
LLC ways: 16
Off-chip DRAM Size: 4096 MB Channels: 1 Width: 64-bit Data Rate: 3200 MT/s

CPU 0 runs /home/isaachywong/champsim-pt/ipc1_public/client_001.champsimtrace.xz
CPU 0 Tage branch predictor
CPU 0 L1I FDIP
Basic BTB sets: 2048 ways: 4 indirect buffer size: 4096 RAS size: 32
Initialize Hawkeye state
Heartbeat CPU 0 instructions: 10000003 cycles: 2411611 heartbeat IPC: 4.14661 cumulative IPC: 4.14661 (Simulation time: 0 hr 6 min 45 sec) 
Heartbeat CPU 0 instructions: 20000004 cycles: 5153666 heartbeat IPC: 3.6469 cumulative IPC: 3.88073 (Simulation time: 0 hr 13 min 2 sec) 
Heartbeat CPU 0 instructions: 30000004 cycles: 7484325 heartbeat IPC: 4.29063 cumulative IPC: 4.00838 (Simulation time: 0 hr 19 min 13 sec) 
Heartbeat CPU 0 instructions: 40000002 cycles: 10339138 heartbeat IPC: 3.50286 cumulative IPC: 3.86879 (Simulation time: 0 hr 26 min 34 sec) 
Heartbeat CPU 0 instructions: 50000000 cycles: 12564865 heartbeat IPC: 4.49291 cumulative IPC: 3.97935 (Simulation time: 0 hr 32 min 53 sec) 

Warmup complete CPU 0 instructions: 50000001 cycles: 12564866 (Simulation time: 0 hr 32 min 53 sec) 

Heartbeat CPU 0 instructions: 60000003 cycles: 20264195 heartbeat IPC: 1.29881 cumulative IPC: 1.29881 (Simulation time: 0 hr 37 min 33 sec) 
Heartbeat CPU 0 instructions: 70000003 cycles: 25339985 heartbeat IPC: 1.97014 cumulative IPC: 1.56554 (Simulation time: 0 hr 42 min 15 sec) 
Heartbeat CPU 0 instructions: 80000003 cycles: 33316478 heartbeat IPC: 1.25368 cumulative IPC: 1.44567 (Simulation time: 0 hr 46 min 53 sec) 
Heartbeat CPU 0 instructions: 90000001 cycles: 38276007 heartbeat IPC: 2.01632 cumulative IPC: 1.55575 (Simulation time: 0 hr 51 min 42 sec) 
Heartbeat CPU 0 instructions: 100000003 cycles: 46207865 heartbeat IPC: 1.26074 cumulative IPC: 1.48619 (Simulation time: 0 hr 55 min 10 sec) 
Finished CPU 0 instructions: 50000002 cycles: 33642999 cumulative IPC: 1.48619 (Simulation time: 0 hr 55 min 10 sec) 

ChampSim completed all CPUs

Region of Interest Statistics

CPU 0 cumulative IPC: 1.48619 instructions: 50000002 cycles: 33642999
L1D TOTAL     ACCESS:   11945367  HIT:   11531131  MISS:     414236
L1D LOAD      ACCESS:    7923056  HIT:    7568145  MISS:     354911
L1D RFO       ACCESS:    4022311  HIT:    3962986  MISS:      59325
L1D PREFETCH  ACCESS:          0  HIT:          0  MISS:          0
L1D WRITEBACK ACCESS:          0  HIT:          0  MISS:          0
L1D PREFETCH  REQUESTED:          0  ISSUED:          0  USEFUL:          0  USELESS:          0
L1D AVERAGE MISS LATENCY: 82.7234 cycles
L1I TOTAL     ACCESS:   10152684  HIT:    9875941  MISS:     276743
L1I LOAD      ACCESS:    2093667  HIT:    1987296  MISS:     106371
L1I RFO       ACCESS:          0  HIT:          0  MISS:          0
L1I PREFETCH  ACCESS:    8059017  HIT:    7888645  MISS:     170372
L1I WRITEBACK ACCESS:          0  HIT:          0  MISS:          0
L1I PREFETCH  REQUESTED:   10721964  ISSUED:   10721427  USEFUL:     168275  USELESS:       2147
L1I AVERAGE MISS LATENCY: 11.7168 cycles
L2C TOTAL     ACCESS:     842469  HIT:     590864  MISS:     251605
L2C LOAD      ACCESS:     395046  HIT:     200657  MISS:     194389
L2C RFO       ACCESS:      59323  HIT:      15833  MISS:      43490
L2C PREFETCH  ACCESS:     236570  HIT:     223295  MISS:      13275
L2C WRITEBACK ACCESS:     151530  HIT:     151079  MISS:        451
L2C PREFETCH  REQUESTED:          0  ISSUED:          0  USEFUL:       5233  USELESS:       7440
L2C AVERAGE MISS LATENCY: 128.812 cycles
LLC TOTAL     ACCESS:     355471  HIT:     215019  MISS:     140452
LLC LOAD      ACCESS:     194389  HIT:      95704  MISS:      98685
LLC RFO       ACCESS:      43490  HIT:       9008  MISS:      34482
LLC PREFETCH  ACCESS:      13275  HIT:       6147  MISS:       7128
LLC WRITEBACK ACCESS:     104317  HIT:     104160  MISS:        157
LLC PREFETCH  REQUESTED:          0  ISSUED:          0  USEFUL:       2448  USELESS:       3619
LLC AVERAGE MISS LATENCY: 194.987 cycles
CPU 0 L1I FDIP final stats

DRAM Statistics
 CHANNEL 0
 RQ ROW_BUFFER_HIT:      26577  ROW_BUFFER_MISS:     113708
 DBUS_CONGESTED:      81054
 WQ ROW_BUFFER_HIT:      12423  ROW_BUFFER_MISS:      64910  FULL:          0

 AVG_CONGESTED_CYCLE: 6

CPU 0 Branch Prediction Accuracy: 94.2562% MPKI: 9.95774 Average ROB Occupancy at Mispredict: 230.241
Branch type MPKI
BRANCH_DIRECT_JUMP: 0.0041
BRANCH_INDIRECT: 0.08416
BRANCH_CONDITIONAL: 8.74588
BRANCH_DIRECT_CALL: 0.00512
BRANCH_INDIRECT_CALL: 1.00982
BRANCH_RETURN: 0.10866

