
VirtualMemory physical capacity: 8589934592 num_ppages: 2097152
VirtualMemory page size: 4096 log2_page_size: 12
VirtualMemory initalizing ppage free list ... done
VirtualMemory shuffling ppage free list ... done

 (TOTAL 523355 bits 511 Kbits) 
*** ChampSim Multicore Out-of-Order Simulator ***

Warmup Instructions: 50000000
Simulation Instructions: 50000000
Number of CPUs: 1
LLC sets: 2048
LLC ways: 16
Off-chip DRAM Size: 4096 MB Channels: 1 Width: 64-bit Data Rate: 3200 MT/s

CPU 0 runs /home/isaachywong/champsim-pt/ipc1_public/server_017.champsimtrace.xz
CPU 0 Tage branch predictor
CPU 0 L1I FDIP
Basic BTB sets: 2048 ways: 4 indirect buffer size: 4096 RAS size: 32
Initialize Hawkeye state
Heartbeat CPU 0 instructions: 10000001 cycles: 2472882 heartbeat IPC: 4.04387 cumulative IPC: 4.04387 (Simulation time: 0 hr 7 min 33 sec) 
Heartbeat CPU 0 instructions: 20000003 cycles: 4945156 heartbeat IPC: 4.04486 cumulative IPC: 4.04436 (Simulation time: 0 hr 14 min 58 sec) 
Heartbeat CPU 0 instructions: 30000004 cycles: 7414415 heartbeat IPC: 4.0498 cumulative IPC: 4.04617 (Simulation time: 0 hr 22 min 22 sec) 
Heartbeat CPU 0 instructions: 40000003 cycles: 9887189 heartbeat IPC: 4.04404 cumulative IPC: 4.04564 (Simulation time: 0 hr 29 min 51 sec) 
Heartbeat CPU 0 instructions: 50000002 cycles: 12357475 heartbeat IPC: 4.04811 cumulative IPC: 4.04613 (Simulation time: 0 hr 37 min 11 sec) 

Warmup complete CPU 0 instructions: 50000002 cycles: 12357475 (Simulation time: 0 hr 37 min 11 sec) 

Heartbeat CPU 0 instructions: 60000001 cycles: 35876508 heartbeat IPC: 0.425187 cumulative IPC: 0.425187 (Simulation time: 0 hr 57 min 10 sec) 
Heartbeat CPU 0 instructions: 70000003 cycles: 59747490 heartbeat IPC: 0.418919 cumulative IPC: 0.42203 (Simulation time: 1 hr 17 min 11 sec) 
Heartbeat CPU 0 instructions: 80000000 cycles: 83118993 heartbeat IPC: 0.427871 cumulative IPC: 0.423959 (Simulation time: 1 hr 36 min 42 sec) 
Heartbeat CPU 0 instructions: 90000004 cycles: 108982706 heartbeat IPC: 0.386642 cumulative IPC: 0.413971 (Simulation time: 1 hr 52 min 41 sec) 
Heartbeat CPU 0 instructions: 100000003 cycles: 133573940 heartbeat IPC: 0.406649 cumulative IPC: 0.412485 (Simulation time: 2 hr 10 min 37 sec) 
Finished CPU 0 instructions: 50000001 cycles: 121216465 cumulative IPC: 0.412485 (Simulation time: 2 hr 10 min 37 sec) 

ChampSim completed all CPUs

Region of Interest Statistics

CPU 0 cumulative IPC: 0.412485 instructions: 50000001 cycles: 121216465
L1D TOTAL     ACCESS:   12836294  HIT:   11098284  MISS:    1738010
L1D LOAD      ACCESS:    6775149  HIT:    5905515  MISS:     869634
L1D RFO       ACCESS:    6061145  HIT:    5192769  MISS:     868376
L1D PREFETCH  ACCESS:          0  HIT:          0  MISS:          0
L1D WRITEBACK ACCESS:          0  HIT:          0  MISS:          0
L1D PREFETCH  REQUESTED:          0  ISSUED:          0  USEFUL:          0  USELESS:          0
L1D AVERAGE MISS LATENCY: 232.787 cycles
L1I TOTAL     ACCESS:   17329296  HIT:   15176368  MISS:    2152928
L1I LOAD      ACCESS:    4462189  HIT:    3158504  MISS:    1303685
L1I RFO       ACCESS:          0  HIT:          0  MISS:          0
L1I PREFETCH  ACCESS:   12867107  HIT:   12017864  MISS:     849243
L1I WRITEBACK ACCESS:          0  HIT:          0  MISS:          0
L1I PREFETCH  REQUESTED:   17750717  ISSUED:   17746181  USEFUL:     848570  USELESS:        669
L1I AVERAGE MISS LATENCY: 9.74 cycles
L2C TOTAL     ACCESS:    5001477  HIT:    3362152  MISS:    1639325
L2C LOAD      ACCESS:    1663761  HIT:     958323  MISS:     705438
L2C RFO       ACCESS:     868372  HIT:      24071  MISS:     844301
L2C PREFETCH  ACCESS:    1358795  HIT:    1271278  MISS:      87517
L2C WRITEBACK ACCESS:    1110549  HIT:    1108480  MISS:       2069
L2C PREFETCH  REQUESTED:          0  ISSUED:          0  USEFUL:      58409  USELESS:      29084
L2C AVERAGE MISS LATENCY: 239.506 cycles
LLC TOTAL     ACCESS:    2689634  HIT:    1474773  MISS:    1214861
LLC LOAD      ACCESS:     705433  HIT:     215679  MISS:     489754
LLC RFO       ACCESS:     844294  HIT:     132689  MISS:     711605
LLC PREFETCH  ACCESS:      87517  HIT:      75429  MISS:      12088
LLC WRITEBACK ACCESS:    1052390  HIT:    1050976  MISS:       1414
LLC PREFETCH  REQUESTED:          0  ISSUED:          0  USEFUL:       6978  USELESS:       4861
LLC AVERAGE MISS LATENCY: 296.233 cycles
CPU 0 L1I FDIP final stats

DRAM Statistics
 CHANNEL 0
 RQ ROW_BUFFER_HIT:     272980  ROW_BUFFER_MISS:     940272
 DBUS_CONGESTED:    1116032
 WQ ROW_BUFFER_HIT:     326061  ROW_BUFFER_MISS:     520856  FULL:          0

 AVG_CONGESTED_CYCLE: 6

CPU 0 Branch Prediction Accuracy: 96.8709% MPKI: 5.2641 Average ROB Occupancy at Mispredict: 251.529
Branch type MPKI
BRANCH_DIRECT_JUMP: 0.00364
BRANCH_INDIRECT: 0.00382
BRANCH_CONDITIONAL: 4.91622
BRANCH_DIRECT_CALL: 0.00826
BRANCH_INDIRECT_CALL: 0.00952
BRANCH_RETURN: 0.32264

