
VirtualMemory physical capacity: 8589934592 num_ppages: 2097152
VirtualMemory page size: 4096 log2_page_size: 12
VirtualMemory initalizing ppage free list ... done
VirtualMemory shuffling ppage free list ... done

 (TOTAL 523355 bits 511 Kbits) 
*** ChampSim Multicore Out-of-Order Simulator ***

Warmup Instructions: 50000000
Simulation Instructions: 50000000
Number of CPUs: 1
LLC sets: 2048
LLC ways: 16
Off-chip DRAM Size: 4096 MB Channels: 1 Width: 64-bit Data Rate: 3200 MT/s

CPU 0 runs /home/isaachywong/champsim-pt/ipc1_public/server_017.champsimtrace.xz
CPU 0 Tage branch predictor
CPU 0 L1I FDIP
Basic BTB sets: 2048 ways: 4 indirect buffer size: 4096 RAS size: 32
Heartbeat CPU 0 instructions: 10000001 cycles: 2472898 heartbeat IPC: 4.04384 cumulative IPC: 4.04384 (Simulation time: 0 hr 7 min 34 sec) 
Heartbeat CPU 0 instructions: 20000003 cycles: 4945212 heartbeat IPC: 4.04479 cumulative IPC: 4.04432 (Simulation time: 0 hr 15 min 4 sec) 
Heartbeat CPU 0 instructions: 30000004 cycles: 7414508 heartbeat IPC: 4.04974 cumulative IPC: 4.04612 (Simulation time: 0 hr 22 min 30 sec) 
Heartbeat CPU 0 instructions: 40000003 cycles: 9887291 heartbeat IPC: 4.04403 cumulative IPC: 4.0456 (Simulation time: 0 hr 30 min 1 sec) 
Heartbeat CPU 0 instructions: 50000002 cycles: 12357605 heartbeat IPC: 4.04807 cumulative IPC: 4.04609 (Simulation time: 0 hr 37 min 26 sec) 

Warmup complete CPU 0 instructions: 50000002 cycles: 12357605 (Simulation time: 0 hr 37 min 26 sec) 

Heartbeat CPU 0 instructions: 60000001 cycles: 35879192 heartbeat IPC: 0.425141 cumulative IPC: 0.425141 (Simulation time: 0 hr 57 min 46 sec) 
Heartbeat CPU 0 instructions: 70000003 cycles: 59748154 heartbeat IPC: 0.418954 cumulative IPC: 0.422025 (Simulation time: 1 hr 18 min 21 sec) 
Heartbeat CPU 0 instructions: 80000000 cycles: 83122787 heartbeat IPC: 0.427814 cumulative IPC: 0.423937 (Simulation time: 1 hr 38 min 35 sec) 
Heartbeat CPU 0 instructions: 90000004 cycles: 108979282 heartbeat IPC: 0.38675 cumulative IPC: 0.413986 (Simulation time: 1 hr 55 min 7 sec) 
Heartbeat CPU 0 instructions: 100000003 cycles: 133578753 heartbeat IPC: 0.406513 cumulative IPC: 0.412469 (Simulation time: 2 hr 13 min 39 sec) 
Finished CPU 0 instructions: 50000001 cycles: 121221148 cumulative IPC: 0.412469 (Simulation time: 2 hr 13 min 39 sec) 

ChampSim completed all CPUs

Region of Interest Statistics

CPU 0 cumulative IPC: 0.412469 instructions: 50000001 cycles: 121221148
L1D TOTAL     ACCESS:   12836963  HIT:   11098952  MISS:    1738011
L1D LOAD      ACCESS:    6775695  HIT:    5906061  MISS:     869634
L1D RFO       ACCESS:    6061268  HIT:    5192891  MISS:     868377
L1D PREFETCH  ACCESS:          0  HIT:          0  MISS:          0
L1D WRITEBACK ACCESS:          0  HIT:          0  MISS:          0
L1D PREFETCH  REQUESTED:          0  ISSUED:          0  USEFUL:          0  USELESS:          0
L1D AVERAGE MISS LATENCY: 232.777 cycles
L1I TOTAL     ACCESS:   17323550  HIT:   15170651  MISS:    2152899
L1I LOAD      ACCESS:    4462670  HIT:    3159025  MISS:    1303645
L1I RFO       ACCESS:          0  HIT:          0  MISS:          0
L1I PREFETCH  ACCESS:   12860880  HIT:   12011626  MISS:     849254
L1I WRITEBACK ACCESS:          0  HIT:          0  MISS:          0
L1I PREFETCH  REQUESTED:   17742299  ISSUED:   17737501  USEFUL:     848559  USELESS:        691
L1I AVERAGE MISS LATENCY: 9.69837 cycles
L2C TOTAL     ACCESS:    5001446  HIT:    3362107  MISS:    1639339
L2C LOAD      ACCESS:    1662655  HIT:     957839  MISS:     704816
L2C RFO       ACCESS:     868373  HIT:      24081  MISS:     844292
L2C PREFETCH  ACCESS:    1359872  HIT:    1271710  MISS:      88162
L2C WRITEBACK ACCESS:    1110546  HIT:    1108477  MISS:       2069
L2C PREFETCH  REQUESTED:          0  ISSUED:          0  USEFUL:      59151  USELESS:      28991
L2C AVERAGE MISS LATENCY: 239.494 cycles
LLC TOTAL     ACCESS:    2689647  HIT:    1474781  MISS:    1214866
LLC LOAD      ACCESS:     704812  HIT:     215202  MISS:     489610
LLC RFO       ACCESS:     844285  HIT:     132671  MISS:     711614
LLC PREFETCH  ACCESS:      88162  HIT:      75935  MISS:      12227
LLC WRITEBACK ACCESS:    1052388  HIT:    1050973  MISS:       1415
LLC PREFETCH  REQUESTED:          0  ISSUED:          0  USEFUL:       7059  USELESS:       4919
LLC AVERAGE MISS LATENCY: 296.218 cycles
CPU 0 L1I FDIP final stats

DRAM Statistics
 CHANNEL 0
 RQ ROW_BUFFER_HIT:     273103  ROW_BUFFER_MISS:     940150
 DBUS_CONGESTED:    1116580
 WQ ROW_BUFFER_HIT:     326011  ROW_BUFFER_MISS:     520901  FULL:          0

 AVG_CONGESTED_CYCLE: 6

CPU 0 Branch Prediction Accuracy: 96.8679% MPKI: 5.26924 Average ROB Occupancy at Mispredict: 251.461
Branch type MPKI
BRANCH_DIRECT_JUMP: 0.00276
BRANCH_INDIRECT: 0.00382
BRANCH_CONDITIONAL: 4.92382
BRANCH_DIRECT_CALL: 0.00668
BRANCH_INDIRECT_CALL: 0.00952
BRANCH_RETURN: 0.32264

