
VirtualMemory physical capacity: 8589934592 num_ppages: 2097152
VirtualMemory page size: 4096 log2_page_size: 12
VirtualMemory initalizing ppage free list ... done
VirtualMemory shuffling ppage free list ... done

 (TOTAL 523355 bits 511 Kbits) 
*** ChampSim Multicore Out-of-Order Simulator ***

Warmup Instructions: 50000000
Simulation Instructions: 50000000
Number of CPUs: 1
LLC sets: 2048
LLC ways: 16
Off-chip DRAM Size: 4096 MB Channels: 1 Width: 64-bit Data Rate: 3200 MT/s

CPU 0 runs /home/isaachywong/champsim-pt/ipc1_public/server_012.champsimtrace.xz
CPU 0 Tage branch predictor
CPU 0 L1I FDIP
Basic BTB sets: 2048 ways: 4 indirect buffer size: 4096 RAS size: 32
Heartbeat CPU 0 instructions: 10000002 cycles: 2067424 heartbeat IPC: 4.83694 cumulative IPC: 4.83694 (Simulation time: 0 hr 6 min 16 sec) 
Heartbeat CPU 0 instructions: 20000000 cycles: 4136024 heartbeat IPC: 4.83419 cumulative IPC: 4.83556 (Simulation time: 0 hr 12 min 20 sec) 
Heartbeat CPU 0 instructions: 30000001 cycles: 6207264 heartbeat IPC: 4.82803 cumulative IPC: 4.83305 (Simulation time: 0 hr 18 min 13 sec) 
Heartbeat CPU 0 instructions: 40000003 cycles: 8283665 heartbeat IPC: 4.81603 cumulative IPC: 4.82878 (Simulation time: 0 hr 24 min 14 sec) 
Heartbeat CPU 0 instructions: 50000004 cycles: 10353356 heartbeat IPC: 4.83164 cumulative IPC: 4.82935 (Simulation time: 0 hr 30 min 12 sec) 

Warmup complete CPU 0 instructions: 50000004 cycles: 10353356 (Simulation time: 0 hr 30 min 12 sec) 

Heartbeat CPU 0 instructions: 60000003 cycles: 16358139 heartbeat IPC: 1.66534 cumulative IPC: 1.66534 (Simulation time: 0 hr 35 min 36 sec) 
Heartbeat CPU 0 instructions: 70000001 cycles: 22424896 heartbeat IPC: 1.64833 cumulative IPC: 1.65679 (Simulation time: 0 hr 40 min 57 sec) 
Heartbeat CPU 0 instructions: 80000002 cycles: 28537834 heartbeat IPC: 1.63587 cumulative IPC: 1.64976 (Simulation time: 0 hr 46 min 22 sec) 
Heartbeat CPU 0 instructions: 90000004 cycles: 34816485 heartbeat IPC: 1.5927 cumulative IPC: 1.63511 (Simulation time: 0 hr 51 min 50 sec) 
Heartbeat CPU 0 instructions: 100000002 cycles: 41050506 heartbeat IPC: 1.6041 cumulative IPC: 1.62882 (Simulation time: 0 hr 57 min 17 sec) 
Finished CPU 0 instructions: 50000000 cycles: 30697151 cumulative IPC: 1.62882 (Simulation time: 0 hr 57 min 17 sec) 

ChampSim completed all CPUs

Region of Interest Statistics

CPU 0 cumulative IPC: 1.62882 instructions: 50000000 cycles: 30697151
L1D TOTAL     ACCESS:   10963030  HIT:   10326888  MISS:     636142
L1D LOAD      ACCESS:    6007956  HIT:    5461402  MISS:     546554
L1D RFO       ACCESS:    4955074  HIT:    4865486  MISS:      89588
L1D PREFETCH  ACCESS:          0  HIT:          0  MISS:          0
L1D WRITEBACK ACCESS:          0  HIT:          0  MISS:          0
L1D PREFETCH  REQUESTED:          0  ISSUED:          0  USEFUL:          0  USELESS:          0
L1D AVERAGE MISS LATENCY: 36.5292 cycles
L1I TOTAL     ACCESS:   14953623  HIT:   13634517  MISS:    1319106
L1I LOAD      ACCESS:    5159017  HIT:    4494016  MISS:     665001
L1I RFO       ACCESS:          0  HIT:          0  MISS:          0
L1I PREFETCH  ACCESS:    9794606  HIT:    9140501  MISS:     654105
L1I WRITEBACK ACCESS:          0  HIT:          0  MISS:          0
L1I PREFETCH  REQUESTED:   13568260  ISSUED:   13568047  USEFUL:     640105  USELESS:      14112
L1I AVERAGE MISS LATENCY: 11.4002 cycles
L2C TOTAL     ACCESS:    2209884  HIT:    1271671  MISS:     938213
L2C LOAD      ACCESS:     737325  HIT:     375740  MISS:     361585
L2C RFO       ACCESS:      89565  HIT:      34024  MISS:      55541
L2C PREFETCH  ACCESS:    1128309  HIT:     609446  MISS:     518863
L2C WRITEBACK ACCESS:     254685  HIT:     252461  MISS:       2224
L2C PREFETCH  REQUESTED:          0  ISSUED:          0  USEFUL:     177520  USELESS:     340442
L2C AVERAGE MISS LATENCY: 30.3582 cycles
LLC TOTAL     ACCESS:    1092181  HIT:    1026756  MISS:      65425
LLC LOAD      ACCESS:     361583  HIT:     310111  MISS:      51472
LLC RFO       ACCESS:      55539  HIT:      45293  MISS:      10246
LLC PREFETCH  ACCESS:     518863  HIT:     515182  MISS:       3681
LLC WRITEBACK ACCESS:     156196  HIT:     156170  MISS:         26
LLC PREFETCH  REQUESTED:          0  ISSUED:          0  USEFUL:       2199  USELESS:       2269
LLC AVERAGE MISS LATENCY: 149.188 cycles
CPU 0 L1I FDIP final stats

DRAM Statistics
 CHANNEL 0
 RQ ROW_BUFFER_HIT:       8948  ROW_BUFFER_MISS:      56450
 DBUS_CONGESTED:      31989
 WQ ROW_BUFFER_HIT:      10518  ROW_BUFFER_MISS:      37493  FULL:          0

 AVG_CONGESTED_CYCLE: 6

CPU 0 Branch Prediction Accuracy: 95.7967% MPKI: 7.81704 Average ROB Occupancy at Mispredict: 162.807
Branch type MPKI
BRANCH_DIRECT_JUMP: 0.30674
BRANCH_INDIRECT: 0.29734
BRANCH_CONDITIONAL: 5.05486
BRANCH_DIRECT_CALL: 0.55554
BRANCH_INDIRECT_CALL: 0.13318
BRANCH_RETURN: 1.46938

