
VirtualMemory physical capacity: 8589934592 num_ppages: 2097152
VirtualMemory page size: 4096 log2_page_size: 12
VirtualMemory initalizing ppage free list ... done
VirtualMemory shuffling ppage free list ... done

 (TOTAL 523355 bits 511 Kbits) 
*** ChampSim Multicore Out-of-Order Simulator ***

Warmup Instructions: 50000000
Simulation Instructions: 50000000
Number of CPUs: 1
LLC sets: 2048
LLC ways: 16
Off-chip DRAM Size: 4096 MB Channels: 1 Width: 64-bit Data Rate: 3200 MT/s

CPU 0 runs /home/isaachywong/champsim-pt/ipc1_public/client_003.champsimtrace.xz
CPU 0 Tage branch predictor
CPU 0 L1I FDIP
Basic BTB sets: 2048 ways: 4 indirect buffer size: 4096 RAS size: 32
Heartbeat CPU 0 instructions: 10000001 cycles: 2133317 heartbeat IPC: 4.68754 cumulative IPC: 4.68754 (Simulation time: 0 hr 4 min 8 sec) 
Heartbeat CPU 0 instructions: 20000004 cycles: 4308751 heartbeat IPC: 4.59679 cumulative IPC: 4.64172 (Simulation time: 0 hr 8 min 25 sec) 
Heartbeat CPU 0 instructions: 30000004 cycles: 6454958 heartbeat IPC: 4.65938 cumulative IPC: 4.64759 (Simulation time: 0 hr 12 min 36 sec) 
Heartbeat CPU 0 instructions: 40000000 cycles: 8610614 heartbeat IPC: 4.63896 cumulative IPC: 4.64543 (Simulation time: 0 hr 16 min 46 sec) 
Heartbeat CPU 0 instructions: 50000003 cycles: 10760388 heartbeat IPC: 4.65165 cumulative IPC: 4.64667 (Simulation time: 0 hr 20 min 47 sec) 

Warmup complete CPU 0 instructions: 50000003 cycles: 10760388 (Simulation time: 0 hr 20 min 47 sec) 

Heartbeat CPU 0 instructions: 60000003 cycles: 16863955 heartbeat IPC: 1.63839 cumulative IPC: 1.63839 (Simulation time: 0 hr 25 min 10 sec) 
Heartbeat CPU 0 instructions: 70000001 cycles: 22770993 heartbeat IPC: 1.6929 cumulative IPC: 1.66519 (Simulation time: 0 hr 29 min 37 sec) 
Heartbeat CPU 0 instructions: 80000003 cycles: 29509428 heartbeat IPC: 1.48402 cumulative IPC: 1.60008 (Simulation time: 0 hr 34 min 18 sec) 
Heartbeat CPU 0 instructions: 90000002 cycles: 44051187 heartbeat IPC: 0.687675 cumulative IPC: 1.20153 (Simulation time: 0 hr 46 min 20 sec) 
Heartbeat CPU 0 instructions: 100000000 cycles: 57072505 heartbeat IPC: 0.767971 cumulative IPC: 1.07963 (Simulation time: 0 hr 58 min 42 sec) 
Finished CPU 0 instructions: 50000002 cycles: 46312118 cumulative IPC: 1.07963 (Simulation time: 0 hr 58 min 42 sec) 

ChampSim completed all CPUs

Region of Interest Statistics

CPU 0 cumulative IPC: 1.07963 instructions: 50000002 cycles: 46312118
L1D TOTAL     ACCESS:   11435158  HIT:   11027824  MISS:     407334
L1D LOAD      ACCESS:    5470714  HIT:    5302498  MISS:     168216
L1D RFO       ACCESS:    5964444  HIT:    5725326  MISS:     239118
L1D PREFETCH  ACCESS:          0  HIT:          0  MISS:          0
L1D WRITEBACK ACCESS:          0  HIT:          0  MISS:          0
L1D PREFETCH  REQUESTED:          0  ISSUED:          0  USEFUL:          0  USELESS:          0
L1D AVERAGE MISS LATENCY: 178.679 cycles
L1I TOTAL     ACCESS:   13593250  HIT:   13175571  MISS:     417679
L1I LOAD      ACCESS:    3753188  HIT:    3517676  MISS:     235512
L1I RFO       ACCESS:          0  HIT:          0  MISS:          0
L1I PREFETCH  ACCESS:    9840062  HIT:    9657895  MISS:     182167
L1I WRITEBACK ACCESS:          0  HIT:          0  MISS:          0
L1I PREFETCH  REQUESTED:   13771264  ISSUED:   13771084  USEFUL:     178183  USELESS:       4025
L1I AVERAGE MISS LATENCY: 11.3696 cycles
L2C TOTAL     ACCESS:    1086453  HIT:     724935  MISS:     361518
L2C LOAD      ACCESS:     251562  HIT:     138930  MISS:     112632
L2C RFO       ACCESS:     239110  HIT:      26985  MISS:     212125
L2C PREFETCH  ACCESS:     334328  HIT:     298648  MISS:      35680
L2C WRITEBACK ACCESS:     261453  HIT:     260372  MISS:       1081
L2C PREFETCH  REQUESTED:          0  ISSUED:          0  USEFUL:      20907  USELESS:      15104
L2C AVERAGE MISS LATENCY: 199.292 cycles
LLC TOTAL     ACCESS:     580825  HIT:     317091  MISS:     263734
LLC LOAD      ACCESS:     112632  HIT:      34168  MISS:      78464
LLC RFO       ACCESS:     212122  HIT:      38259  MISS:     173863
LLC PREFETCH  ACCESS:      35680  HIT:      24619  MISS:      11061
LLC WRITEBACK ACCESS:     220391  HIT:     220045  MISS:        346
LLC PREFETCH  REQUESTED:          0  ISSUED:          0  USEFUL:       4081  USELESS:       7470
LLC AVERAGE MISS LATENCY: 245.849 cycles
CPU 0 L1I FDIP final stats

DRAM Statistics
 CHANNEL 0
 RQ ROW_BUFFER_HIT:      77566  ROW_BUFFER_MISS:     185817
 DBUS_CONGESTED:     232943
 WQ ROW_BUFFER_HIT:      70621  ROW_BUFFER_MISS:     103955  FULL:          0

 AVG_CONGESTED_CYCLE: 6

CPU 0 Branch Prediction Accuracy: 97.3158% MPKI: 5.35818 Average ROB Occupancy at Mispredict: 168.402
Branch type MPKI
BRANCH_DIRECT_JUMP: 0.0608
BRANCH_INDIRECT: 0.50808
BRANCH_CONDITIONAL: 4.10206
BRANCH_DIRECT_CALL: 0.14766
BRANCH_INDIRECT_CALL: 0.33032
BRANCH_RETURN: 0.20926

