
VirtualMemory physical capacity: 8589934592 num_ppages: 2097152
VirtualMemory page size: 4096 log2_page_size: 12
VirtualMemory initalizing ppage free list ... done
VirtualMemory shuffling ppage free list ... done

 (TOTAL 523355 bits 511 Kbits) 
*** ChampSim Multicore Out-of-Order Simulator ***

Warmup Instructions: 50000000
Simulation Instructions: 50000000
Number of CPUs: 1
LLC sets: 2048
LLC ways: 16
Off-chip DRAM Size: 4096 MB Channels: 1 Width: 64-bit Data Rate: 3200 MT/s

CPU 0 runs /home/isaachywong/champsim-pt/ipc1_public/client_001.champsimtrace.xz
CPU 0 Tage branch predictor
CPU 0 L1I FDIP
Basic BTB sets: 256 ways: 4 unconditional BTB sets: 1024 ways: 7 indirect buffer size: 4096 RAS size: 32
Heartbeat CPU 0 instructions: 10000003 cycles: 2411208 heartbeat IPC: 4.1473 cumulative IPC: 4.1473 (Simulation time: 0 hr 4 min 39 sec) 
Heartbeat CPU 0 instructions: 20000004 cycles: 5153221 heartbeat IPC: 3.64696 cumulative IPC: 3.88107 (Simulation time: 0 hr 9 min 24 sec) 
Heartbeat CPU 0 instructions: 30000004 cycles: 7483876 heartbeat IPC: 4.29064 cumulative IPC: 4.00862 (Simulation time: 0 hr 13 min 40 sec) 
Heartbeat CPU 0 instructions: 40000003 cycles: 10338768 heartbeat IPC: 3.50276 cumulative IPC: 3.86893 (Simulation time: 0 hr 19 min 11 sec) 
Heartbeat CPU 0 instructions: 50000000 cycles: 12564566 heartbeat IPC: 4.49277 cumulative IPC: 3.97944 (Simulation time: 0 hr 23 min 29 sec) 

Warmup complete CPU 0 instructions: 50000001 cycles: 12564567 (Simulation time: 0 hr 23 min 29 sec) 

Heartbeat CPU 0 instructions: 60000003 cycles: 20391086 heartbeat IPC: 1.27771 cumulative IPC: 1.27771 (Simulation time: 0 hr 27 min 57 sec) 
Heartbeat CPU 0 instructions: 70000003 cycles: 25634534 heartbeat IPC: 1.90714 cumulative IPC: 1.53023 (Simulation time: 0 hr 31 min 54 sec) 
Heartbeat CPU 0 instructions: 80000003 cycles: 33679203 heartbeat IPC: 1.24306 cumulative IPC: 1.42082 (Simulation time: 0 hr 36 min 19 sec) 
Heartbeat CPU 0 instructions: 90000001 cycles: 38866592 heartbeat IPC: 1.92775 cumulative IPC: 1.5208 (Simulation time: 0 hr 40 min 19 sec) 
Heartbeat CPU 0 instructions: 100000003 cycles: 46868773 heartbeat IPC: 1.24966 cumulative IPC: 1.45755 (Simulation time: 0 hr 43 min 43 sec) 
Finished CPU 0 instructions: 50000002 cycles: 34304206 cumulative IPC: 1.45755 (Simulation time: 0 hr 43 min 43 sec) 

ChampSim completed all CPUs

Region of Interest Statistics

CPU 0 cumulative IPC: 1.45755 instructions: 50000002 cycles: 34304206
L1D TOTAL     ACCESS:   11972275  HIT:   11558043  MISS:     414232
L1D LOAD      ACCESS:    7949027  HIT:    7594166  MISS:     354861
L1D RFO       ACCESS:    4023248  HIT:    3963877  MISS:      59371
L1D PREFETCH  ACCESS:          0  HIT:          0  MISS:          0
L1D WRITEBACK ACCESS:          0  HIT:          0  MISS:          0
L1D PREFETCH  REQUESTED:          0  ISSUED:          0  USEFUL:          0  USELESS:          0
L1D AVERAGE MISS LATENCY: 82.2986 cycles
L1I TOTAL     ACCESS:    7222019  HIT:    6953531  MISS:     268488
L1I LOAD      ACCESS:    2088406  HIT:    1845082  MISS:     243324
L1I RFO       ACCESS:          0  HIT:          0  MISS:          0
L1I PREFETCH  ACCESS:    5133613  HIT:    5108449  MISS:      25164
L1I WRITEBACK ACCESS:          0  HIT:          0  MISS:          0
L1I PREFETCH  REQUESTED:    7552641  ISSUED:    7552641  USEFUL:      25010  USELESS:        166
L1I AVERAGE MISS LATENCY: 15.7659 cycles
L2C TOTAL     ACCESS:     834237  HIT:     582746  MISS:     251491
L2C LOAD      ACCESS:     574191  HIT:     371361  MISS:     202830
L2C RFO       ACCESS:      59370  HIT:      15828  MISS:      43542
L2C PREFETCH  ACCESS:      49124  HIT:      44408  MISS:       4716
L2C WRITEBACK ACCESS:     151552  HIT:     151149  MISS:        403
L2C PREFETCH  REQUESTED:          0  ISSUED:          0  USEFUL:       1636  USELESS:       2831
L2C AVERAGE MISS LATENCY: 125.451 cycles
LLC TOTAL     ACCESS:     355552  HIT:     214123  MISS:     141429
LLC LOAD      ACCESS:     202830  HIT:      98863  MISS:     103967
LLC RFO       ACCESS:      43541  HIT:       9000  MISS:      34541
LLC PREFETCH  ACCESS:       4716  HIT:       2001  MISS:       2715
LLC WRITEBACK ACCESS:     104465  HIT:     104259  MISS:        206
LLC PREFETCH  REQUESTED:          0  ISSUED:          0  USEFUL:        933  USELESS:       1222
LLC AVERAGE MISS LATENCY: 187.57 cycles
CPU 0 L1I FDIP final stats

DRAM Statistics
 CHANNEL 0
 RQ ROW_BUFFER_HIT:      26169  ROW_BUFFER_MISS:     115048
 DBUS_CONGESTED:      80487
 WQ ROW_BUFFER_HIT:      13097  ROW_BUFFER_MISS:      65475  FULL:          0

 AVG_CONGESTED_CYCLE: 6

CPU 0 Branch Prediction Accuracy: 94.1815% MPKI: 10.0873 Average ROB Occupancy at Mispredict: 226.546
Branch type MPKI
BRANCH_DIRECT_JUMP: 0.00312
BRANCH_INDIRECT: 0.08416
BRANCH_CONDITIONAL: 8.87718
BRANCH_DIRECT_CALL: 0.0044
BRANCH_INDIRECT_CALL: 1.00982
BRANCH_RETURN: 0.10866

