
VirtualMemory physical capacity: 8589934592 num_ppages: 2097152
VirtualMemory page size: 4096 log2_page_size: 12
VirtualMemory initalizing ppage free list ... done
VirtualMemory shuffling ppage free list ... done

 (TOTAL 523355 bits 511 Kbits) 
*** ChampSim Multicore Out-of-Order Simulator ***

Warmup Instructions: 50000000
Simulation Instructions: 50000000
Number of CPUs: 1
LLC sets: 2048
LLC ways: 16
Off-chip DRAM Size: 4096 MB Channels: 1 Width: 64-bit Data Rate: 3200 MT/s

CPU 0 runs /home/isaachywong/champsim-pt/ipc1_public/server_017.champsimtrace.xz
CPU 0 Tage branch predictor
CPU 0 L1I FDIP
Basic BTB sets: 256 ways: 4 unconditional BTB sets: 1024 ways: 7 indirect buffer size: 4096 RAS size: 32
Heartbeat CPU 0 instructions: 10000001 cycles: 2468402 heartbeat IPC: 4.0512 cumulative IPC: 4.0512 (Simulation time: 0 hr 6 min 46 sec) 
Heartbeat CPU 0 instructions: 20000003 cycles: 4936899 heartbeat IPC: 4.05105 cumulative IPC: 4.05113 (Simulation time: 0 hr 13 min 29 sec) 
Heartbeat CPU 0 instructions: 30000004 cycles: 7402456 heartbeat IPC: 4.05588 cumulative IPC: 4.05271 (Simulation time: 0 hr 20 min 10 sec) 
Heartbeat CPU 0 instructions: 40000001 cycles: 9872050 heartbeat IPC: 4.04925 cumulative IPC: 4.05184 (Simulation time: 0 hr 26 min 55 sec) 
Heartbeat CPU 0 instructions: 50000002 cycles: 12338300 heartbeat IPC: 4.05474 cumulative IPC: 4.05242 (Simulation time: 0 hr 33 min 32 sec) 

Warmup complete CPU 0 instructions: 50000002 cycles: 12338300 (Simulation time: 0 hr 33 min 32 sec) 

Heartbeat CPU 0 instructions: 60000001 cycles: 36165244 heartbeat IPC: 0.419693 cumulative IPC: 0.419693 (Simulation time: 0 hr 51 min 42 sec) 
Heartbeat CPU 0 instructions: 70000003 cycles: 60301848 heartbeat IPC: 0.414309 cumulative IPC: 0.416983 (Simulation time: 1 hr 10 min 9 sec) 
Heartbeat CPU 0 instructions: 80000000 cycles: 83846750 heartbeat IPC: 0.42472 cumulative IPC: 0.419531 (Simulation time: 1 hr 28 min 11 sec) 
Heartbeat CPU 0 instructions: 90000004 cycles: 109935031 heartbeat IPC: 0.383314 cumulative IPC: 0.40985 (Simulation time: 1 hr 43 min 13 sec) 
Heartbeat CPU 0 instructions: 100000003 cycles: 134854659 heartbeat IPC: 0.40129 cumulative IPC: 0.408109 (Simulation time: 1 hr 59 min 49 sec) 
Finished CPU 0 instructions: 50000001 cycles: 122516359 cumulative IPC: 0.408109 (Simulation time: 1 hr 59 min 49 sec) 

ChampSim completed all CPUs

Region of Interest Statistics

CPU 0 cumulative IPC: 0.408109 instructions: 50000001 cycles: 122516359
L1D TOTAL     ACCESS:   12902857  HIT:   11164836  MISS:    1738021
L1D LOAD      ACCESS:    6836809  HIT:    5967356  MISS:     869453
L1D RFO       ACCESS:    6066048  HIT:    5197480  MISS:     868568
L1D PREFETCH  ACCESS:          0  HIT:          0  MISS:          0
L1D WRITEBACK ACCESS:          0  HIT:          0  MISS:          0
L1D PREFETCH  REQUESTED:          0  ISSUED:          0  USEFUL:          0  USELESS:          0
L1D AVERAGE MISS LATENCY: 231.397 cycles
L1I TOTAL     ACCESS:   10895902  HIT:    8729121  MISS:    2166781
L1I LOAD      ACCESS:    4443448  HIT:    2380886  MISS:    2062562
L1I RFO       ACCESS:          0  HIT:          0  MISS:          0
L1I PREFETCH  ACCESS:    6452454  HIT:    6348235  MISS:     104219
L1I WRITEBACK ACCESS:          0  HIT:          0  MISS:          0
L1I PREFETCH  REQUESTED:    8437419  ISSUED:    8437419  USEFUL:     102153  USELESS:       2066
L1I AVERAGE MISS LATENCY: 12.4873 cycles
L2C TOTAL     ACCESS:    5015315  HIT:    3379563  MISS:    1635752
L2C LOAD      ACCESS:    2777484  HIT:    2011432  MISS:     766052
L2C RFO       ACCESS:     868565  HIT:      26735  MISS:     841830
L2C PREFETCH  ACCESS:     258743  HIT:     232815  MISS:      25928
L2C WRITEBACK ACCESS:    1110523  HIT:    1108581  MISS:       1942
L2C PREFETCH  REQUESTED:          0  ISSUED:          0  USEFUL:      14977  USELESS:      10934
L2C AVERAGE MISS LATENCY: 237.775 cycles
LLC TOTAL     ACCESS:    2683467  HIT:    1467851  MISS:    1215616
LLC LOAD      ACCESS:     766052  HIT:     264976  MISS:     501076
LLC RFO       ACCESS:     841829  HIT:     132670  MISS:     709159
LLC PREFETCH  ACCESS:      25928  HIT:      21909  MISS:       4019
LLC WRITEBACK ACCESS:    1049658  HIT:    1048296  MISS:       1362
LLC PREFETCH  REQUESTED:          0  ISSUED:          0  USEFUL:       2019  USELESS:       1848
LLC AVERAGE MISS LATENCY: 293.073 cycles
CPU 0 L1I FDIP final stats

DRAM Statistics
 CHANNEL 0
 RQ ROW_BUFFER_HIT:     275105  ROW_BUFFER_MISS:     938948
 DBUS_CONGESTED:    1111567
 WQ ROW_BUFFER_HIT:     327668  ROW_BUFFER_MISS:     517553  FULL:          0

 AVG_CONGESTED_CYCLE: 6

CPU 0 Branch Prediction Accuracy: 96.2741% MPKI: 6.26818 Average ROB Occupancy at Mispredict: 227.627
Branch type MPKI
BRANCH_DIRECT_JUMP: 0.00224
BRANCH_INDIRECT: 0.00382
BRANCH_CONDITIONAL: 5.92382
BRANCH_DIRECT_CALL: 0.00614
BRANCH_INDIRECT_CALL: 0.00952
BRANCH_RETURN: 0.32264

