
VirtualMemory physical capacity: 8589934592 num_ppages: 2097152
VirtualMemory page size: 4096 log2_page_size: 12
VirtualMemory initalizing ppage free list ... done
VirtualMemory shuffling ppage free list ... done

 (TOTAL 523355 bits 511 Kbits) 
*** ChampSim Multicore Out-of-Order Simulator ***

Warmup Instructions: 50000000
Simulation Instructions: 50000000
Number of CPUs: 1
LLC sets: 2048
LLC ways: 16
Off-chip DRAM Size: 4096 MB Channels: 1 Width: 64-bit Data Rate: 3200 MT/s

CPU 0 runs /home/isaachywong/champsim-pt/ipc1_public/server_024.champsimtrace.xz
CPU 0 Tage branch predictor
CPU 0 L1I FDIP
Basic BTB sets: 256 ways: 4 unconditional BTB sets: 1024 ways: 7 indirect buffer size: 4096 RAS size: 32
Heartbeat CPU 0 instructions: 10000002 cycles: 2120701 heartbeat IPC: 4.71542 cumulative IPC: 4.71542 (Simulation time: 0 hr 4 min 32 sec) 
Heartbeat CPU 0 instructions: 20000004 cycles: 4232619 heartbeat IPC: 4.73503 cumulative IPC: 4.72521 (Simulation time: 0 hr 8 min 59 sec) 
Heartbeat CPU 0 instructions: 30000002 cycles: 6352203 heartbeat IPC: 4.71791 cumulative IPC: 4.72277 (Simulation time: 0 hr 13 min 29 sec) 
Heartbeat CPU 0 instructions: 40000002 cycles: 8473026 heartbeat IPC: 4.71515 cumulative IPC: 4.72086 (Simulation time: 0 hr 17 min 58 sec) 
Heartbeat CPU 0 instructions: 50000002 cycles: 10585937 heartbeat IPC: 4.73281 cumulative IPC: 4.72325 (Simulation time: 0 hr 22 min 23 sec) 

Warmup complete CPU 0 instructions: 50000002 cycles: 10585937 (Simulation time: 0 hr 22 min 23 sec) 

Heartbeat CPU 0 instructions: 60000000 cycles: 20244690 heartbeat IPC: 1.03533 cumulative IPC: 1.03533 (Simulation time: 0 hr 27 min 15 sec) 
Heartbeat CPU 0 instructions: 70000000 cycles: 29970118 heartbeat IPC: 1.02823 cumulative IPC: 1.03177 (Simulation time: 0 hr 32 min 7 sec) 
*** Reached end of trace: /home/isaachywong/champsim-pt/ipc1_public/server_024.champsimtrace.xz
Heartbeat CPU 0 instructions: 80000002 cycles: 39599676 heartbeat IPC: 1.03847 cumulative IPC: 1.03399 (Simulation time: 0 hr 36 min 55 sec) 
Heartbeat CPU 0 instructions: 90000004 cycles: 49436549 heartbeat IPC: 1.01658 cumulative IPC: 1.02958 (Simulation time: 0 hr 41 min 50 sec) 
Heartbeat CPU 0 instructions: 100000004 cycles: 59297026 heartbeat IPC: 1.01415 cumulative IPC: 1.02646 (Simulation time: 0 hr 46 min 43 sec) 
Finished CPU 0 instructions: 50000002 cycles: 48711089 cumulative IPC: 1.02646 (Simulation time: 0 hr 46 min 43 sec) 

ChampSim completed all CPUs

Region of Interest Statistics

CPU 0 cumulative IPC: 1.02646 instructions: 50000002 cycles: 48711089
L1D TOTAL     ACCESS:   13843106  HIT:   12853445  MISS:     989661
L1D LOAD      ACCESS:    7631703  HIT:    6921192  MISS:     710511
L1D RFO       ACCESS:    6211403  HIT:    5932253  MISS:     279150
L1D PREFETCH  ACCESS:          0  HIT:          0  MISS:          0
L1D WRITEBACK ACCESS:          0  HIT:          0  MISS:          0
L1D PREFETCH  REQUESTED:          0  ISSUED:          0  USEFUL:          0  USELESS:          0
L1D AVERAGE MISS LATENCY: 24.5557 cycles
L1I TOTAL     ACCESS:   10841724  HIT:    8345393  MISS:    2496331
L1I LOAD      ACCESS:    5309634  HIT:    3233581  MISS:    2076053
L1I RFO       ACCESS:          0  HIT:          0  MISS:          0
L1I PREFETCH  ACCESS:    5532090  HIT:    5111812  MISS:     420278
L1I WRITEBACK ACCESS:          0  HIT:          0  MISS:          0
L1I PREFETCH  REQUESTED:    9246523  ISSUED:    9246523  USEFUL:     417818  USELESS:       2460
L1I AVERAGE MISS LATENCY: 10.7502 cycles
L2C TOTAL     ACCESS:    3952642  HIT:    3445746  MISS:     506896
L2C LOAD      ACCESS:    2334751  HIT:    2021377  MISS:     313374
L2C RFO       ACCESS:     279058  HIT:     204557  MISS:      74501
L2C PREFETCH  ACCESS:     872043  HIT:     762624  MISS:     109419
L2C WRITEBACK ACCESS:     466790  HIT:     457188  MISS:       9602
L2C PREFETCH  REQUESTED:          0  ISSUED:          0  USEFUL:      52409  USELESS:      56825
L2C AVERAGE MISS LATENCY: 38.1961 cycles
LLC TOTAL     ACCESS:     608305  HIT:     570826  MISS:      37479
LLC LOAD      ACCESS:     313373  HIT:     299464  MISS:      13909
LLC RFO       ACCESS:      74496  HIT:      51616  MISS:      22880
LLC PREFETCH  ACCESS:     109419  HIT:     108908  MISS:        511
LLC WRITEBACK ACCESS:     111017  HIT:     110838  MISS:        179
LLC PREFETCH  REQUESTED:          0  ISSUED:          0  USEFUL:        198  USELESS:        133
LLC AVERAGE MISS LATENCY: 251.221 cycles
CPU 0 L1I FDIP final stats

DRAM Statistics
 CHANNEL 0
 RQ ROW_BUFFER_HIT:      12151  ROW_BUFFER_MISS:      25149
 DBUS_CONGESTED:      30971
 WQ ROW_BUFFER_HIT:       2049  ROW_BUFFER_MISS:      21819  FULL:          0

 AVG_CONGESTED_CYCLE: 6

CPU 0 Branch Prediction Accuracy: 91.2898% MPKI: 15.933 Average ROB Occupancy at Mispredict: 65.0638
Branch type MPKI
BRANCH_DIRECT_JUMP: 0.0016
BRANCH_INDIRECT: 0.4314
BRANCH_CONDITIONAL: 14.9233
BRANCH_DIRECT_CALL: 0.00294
BRANCH_INDIRECT_CALL: 0.44476
BRANCH_RETURN: 0.12898

