
VirtualMemory physical capacity: 8589934592 num_ppages: 2097152
VirtualMemory page size: 4096 log2_page_size: 12
VirtualMemory initalizing ppage free list ... done
VirtualMemory shuffling ppage free list ... done

 (TAGE 463917)  (LOOP 1248)  (SC 58190)  (TOTAL 523355 bits 511 Kbits)  (TOTAL 523355 bits 511 Kbits) 
*** ChampSim Multicore Out-of-Order Simulator ***

Warmup Instructions: 50000000
Simulation Instructions: 50000000
Number of CPUs: 1
LLC sets: 2048
LLC ways: 16
Off-chip DRAM Size: 4096 MB Channels: 1 Width: 64-bit Data Rate: 3200 MT/s

CPU 0 runs /home/isaachywong/champsim-pt/ipc1_public/server_011.champsimtrace.xz
CPU 0 Tage branch predictor
CPU 0 L1I FDIP
Basic BTB sets: 2048 ways: 4 indirect buffer size: 4096 RAS size: 32
Heartbeat CPU 0 instructions: 10000001 cycles: 2091712 heartbeat IPC: 4.78077 cumulative IPC: 4.78077 (Simulation time: 0 hr 6 min 12 sec) 
Heartbeat CPU 0 instructions: 20000000 cycles: 4187179 heartbeat IPC: 4.77221 cumulative IPC: 4.77649 (Simulation time: 0 hr 12 min 9 sec) 
Heartbeat CPU 0 instructions: 30000001 cycles: 6320546 heartbeat IPC: 4.68743 cumulative IPC: 4.74643 (Simulation time: 0 hr 18 min 21 sec) 
Heartbeat CPU 0 instructions: 40000002 cycles: 8412576 heartbeat IPC: 4.78005 cumulative IPC: 4.75479 (Simulation time: 0 hr 24 min 24 sec) 
Heartbeat CPU 0 instructions: 50000000 cycles: 10510452 heartbeat IPC: 4.76673 cumulative IPC: 4.75717 (Simulation time: 0 hr 30 min 21 sec) 

Warmup complete CPU 0 instructions: 50000005 cycles: 10510453 (Simulation time: 0 hr 30 min 21 sec) 

Heartbeat CPU 0 instructions: 60000002 cycles: 16190962 heartbeat IPC: 1.76041 cumulative IPC: 1.76041 (Simulation time: 0 hr 37 min 37 sec) 
Heartbeat CPU 0 instructions: 70000001 cycles: 22494753 heartbeat IPC: 1.58635 cumulative IPC: 1.66885 (Simulation time: 0 hr 44 min 59 sec) 
Heartbeat CPU 0 instructions: 80000000 cycles: 29818802 heartbeat IPC: 1.36536 cumulative IPC: 1.55373 (Simulation time: 0 hr 49 min 48 sec) 
Heartbeat CPU 0 instructions: 90000002 cycles: 35556276 heartbeat IPC: 1.74293 cumulative IPC: 1.59707 (Simulation time: 0 hr 56 min 54 sec) 
Heartbeat CPU 0 instructions: 100000002 cycles: 41206873 heartbeat IPC: 1.76972 cumulative IPC: 1.62885 (Simulation time: 1 hr 4 min 0 sec) 
Finished CPU 0 instructions: 50000001 cycles: 30696421 cumulative IPC: 1.62885 (Simulation time: 1 hr 4 min 0 sec) 

ChampSim completed all CPUs

Region of Interest Statistics

CPU 0 cumulative IPC: 1.62885 instructions: 50000001 cycles: 30696421
L1D TOTAL     ACCESS:   10923668  HIT:   10290991  MISS:     632677
L1D LOAD      ACCESS:    6122043  HIT:    5578340  MISS:     543703
L1D RFO       ACCESS:    4801625  HIT:    4712651  MISS:      88974
L1D PREFETCH  ACCESS:          0  HIT:          0  MISS:          0
L1D WRITEBACK ACCESS:          0  HIT:          0  MISS:          0
L1D PREFETCH  REQUESTED:          0  ISSUED:          0  USEFUL:          0  USELESS:          0
L1D AVERAGE MISS LATENCY: 38.3904 cycles
L1I TOTAL     ACCESS:   16500800  HIT:   15261182  MISS:    1239618
L1I LOAD      ACCESS:    4859725  HIT:    4237694  MISS:     622031
L1I RFO       ACCESS:          0  HIT:          0  MISS:          0
L1I PREFETCH  ACCESS:   11641075  HIT:   11023488  MISS:     617587
L1I WRITEBACK ACCESS:          0  HIT:          0  MISS:          0
L1I PREFETCH  REQUESTED:   16286748  ISSUED:   16285606  USEFUL:     576808  USELESS:      40802
L1I AVERAGE MISS LATENCY: 14.0977 cycles
L2C TOTAL     ACCESS:    2121141  HIT:    1269622  MISS:     851519
L2C LOAD      ACCESS:     809693  HIT:     479022  MISS:     330671
L2C RFO       ACCESS:      88930  HIT:      37146  MISS:      51784
L2C PREFETCH  ACCESS:     973586  HIT:     506977  MISS:     466609
L2C WRITEBACK ACCESS:     248932  HIT:     246477  MISS:       2455
L2C PREFETCH  REQUESTED:          0  ISSUED:          0  USEFUL:     170435  USELESS:     295670
L2C AVERAGE MISS LATENCY: 37.5316 cycles
LLC TOTAL     ACCESS:     989349  HIT:     894126  MISS:      95223
LLC LOAD      ACCESS:     330652  HIT:     272006  MISS:      58646
LLC RFO       ACCESS:      51783  HIT:      34873  MISS:      16910
LLC PREFETCH  ACCESS:     466609  HIT:     447031  MISS:      19578
LLC WRITEBACK ACCESS:     140305  HIT:     140216  MISS:         89
LLC PREFETCH  REQUESTED:          0  ISSUED:          0  USEFUL:       9563  USELESS:      10120
LLC AVERAGE MISS LATENCY: 157.271 cycles
CPU 0 L1I FDIP final stats

DRAM Statistics
 CHANNEL 0
 RQ ROW_BUFFER_HIT:      11809  ROW_BUFFER_MISS:      83323
 DBUS_CONGESTED:      43334
 WQ ROW_BUFFER_HIT:      14147  ROW_BUFFER_MISS:      37902  FULL:          0

 AVG_CONGESTED_CYCLE: 6

CPU 0 Branch Prediction Accuracy: 97.2112% MPKI: 5.23882 Average ROB Occupancy at Mispredict: 185.584
Branch type MPKI
BRANCH_DIRECT_JUMP: 0.13924
BRANCH_INDIRECT: 0.4927
BRANCH_CONDITIONAL: 2.26788
BRANCH_DIRECT_CALL: 0.30572
BRANCH_INDIRECT_CALL: 0.75052
BRANCH_RETURN: 1.28276

