
VirtualMemory physical capacity: 8589934592 num_ppages: 2097152
VirtualMemory page size: 4096 log2_page_size: 12
VirtualMemory initalizing ppage free list ... done
VirtualMemory shuffling ppage free list ... done

 (TOTAL 523355 bits 511 Kbits) 
*** ChampSim Multicore Out-of-Order Simulator ***

Warmup Instructions: 50000000
Simulation Instructions: 50000000
Number of CPUs: 1
LLC sets: 2048
LLC ways: 16
Off-chip DRAM Size: 4096 MB Channels: 1 Width: 64-bit Data Rate: 3200 MT/s

CPU 0 runs /home/isaachywong/champsim-pt/ipc1_public/client_001.champsimtrace.xz
CPU 0 Tage branch predictor
CPU 0 L1I FDIP
Basic BTB sets: 2048 ways: 4 indirect buffer size: 4096 RAS size: 32
Heartbeat CPU 0 instructions: 10000003 cycles: 2411627 heartbeat IPC: 4.14658 cumulative IPC: 4.14658 (Simulation time: 0 hr 6 min 45 sec) 
Heartbeat CPU 0 instructions: 20000004 cycles: 5153678 heartbeat IPC: 3.64691 cumulative IPC: 3.88072 (Simulation time: 0 hr 13 min 2 sec) 
Error: cannot find the corresponding timestamp!
Error: cannot find the corresponding timestamp!
Heartbeat CPU 0 instructions: 30000004 cycles: 7484330 heartbeat IPC: 4.29064 cumulative IPC: 4.00838 (Simulation time: 0 hr 19 min 13 sec) 
Error: cannot find the corresponding timestamp!
Error: cannot find the corresponding timestamp!
Error: cannot find the corresponding timestamp!
Error: cannot find the corresponding timestamp!
Error: cannot find the corresponding timestamp!
Error: cannot find the corresponding timestamp!
Heartbeat CPU 0 instructions: 40000002 cycles: 10339126 heartbeat IPC: 3.50288 cumulative IPC: 3.8688 (Simulation time: 0 hr 26 min 35 sec) 
Error: cannot find the corresponding timestamp!
Error: cannot find the corresponding timestamp!
Error: cannot find the corresponding timestamp!
Error: cannot find the corresponding timestamp!
Error: cannot find the corresponding timestamp!
Error: cannot find the corresponding timestamp!
Error: cannot find the corresponding timestamp!
Error: cannot find the corresponding timestamp!
Error: cannot find the corresponding timestamp!
Error: cannot find the corresponding timestamp!
Error: cannot find the corresponding timestamp!
Error: cannot find the corresponding timestamp!
Heartbeat CPU 0 instructions: 50000000 cycles: 12564852 heartbeat IPC: 4.49292 cumulative IPC: 3.97935 (Simulation time: 0 hr 32 min 54 sec) 

Warmup complete CPU 0 instructions: 50000001 cycles: 12564853 (Simulation time: 0 hr 32 min 54 sec) 

Error: cannot find the corresponding timestamp!
Error: cannot find the corresponding timestamp!
Error: cannot find the corresponding timestamp!
Error: cannot find the corresponding timestamp!
Error: cannot find the corresponding timestamp!
Error: cannot find the corresponding timestamp!
Error: cannot find the corresponding timestamp!
Heartbeat CPU 0 instructions: 60000003 cycles: 20263823 heartbeat IPC: 1.29888 cumulative IPC: 1.29888 (Simulation time: 0 hr 37 min 34 sec) 
Error: cannot find the corresponding timestamp!
Error: cannot find the corresponding timestamp!
Heartbeat CPU 0 instructions: 70000003 cycles: 25340446 heartbeat IPC: 1.96981 cumulative IPC: 1.56549 (Simulation time: 0 hr 42 min 16 sec) 
Error: cannot find the corresponding timestamp!
Error: cannot find the corresponding timestamp!
Error: cannot find the corresponding timestamp!
Error: cannot find the corresponding timestamp!
Error: cannot find the corresponding timestamp!
Error: cannot find the corresponding timestamp!
Heartbeat CPU 0 instructions: 80000003 cycles: 33315374 heartbeat IPC: 1.25393 cumulative IPC: 1.44575 (Simulation time: 0 hr 46 min 55 sec) 
Error: cannot find the corresponding timestamp!
Error: cannot find the corresponding timestamp!
Error: cannot find the corresponding timestamp!
Error: cannot find the corresponding timestamp!
Error: cannot find the corresponding timestamp!
Error: cannot find the corresponding timestamp!
Error: cannot find the corresponding timestamp!
Error: cannot find the corresponding timestamp!
Error: cannot find the corresponding timestamp!
Heartbeat CPU 0 instructions: 90000001 cycles: 38273807 heartbeat IPC: 2.01677 cumulative IPC: 1.55588 (Simulation time: 0 hr 51 min 44 sec) 
Error: cannot find the corresponding timestamp!
Error: cannot find the corresponding timestamp!
Error: cannot find the corresponding timestamp!
Error: cannot find the corresponding timestamp!
Error: cannot find the corresponding timestamp!
Error: cannot find the corresponding timestamp!
Error: cannot find the corresponding timestamp!
Error: cannot find the corresponding timestamp!
Error: cannot find the corresponding timestamp!
Error: cannot find the corresponding timestamp!
Error: cannot find the corresponding timestamp!
Error: cannot find the corresponding timestamp!
Error: cannot find the corresponding timestamp!
Error: cannot find the corresponding timestamp!
Error: cannot find the corresponding timestamp!
Error: cannot find the corresponding timestamp!
Error: cannot find the corresponding timestamp!
Error: cannot find the corresponding timestamp!
Error: cannot find the corresponding timestamp!
Error: cannot find the corresponding timestamp!
Error: cannot find the corresponding timestamp!
Error: cannot find the corresponding timestamp!
Error: cannot find the corresponding timestamp!
Error: cannot find the corresponding timestamp!
Error: cannot find the corresponding timestamp!
Error: cannot find the corresponding timestamp!
Error: cannot find the corresponding timestamp!
Heartbeat CPU 0 instructions: 100000003 cycles: 46208444 heartbeat IPC: 1.2603 cumulative IPC: 1.48617 (Simulation time: 0 hr 55 min 11 sec) 
Finished CPU 0 instructions: 50000002 cycles: 33643591 cumulative IPC: 1.48617 (Simulation time: 0 hr 55 min 11 sec) 

ChampSim completed all CPUs

Region of Interest Statistics

CPU 0 cumulative IPC: 1.48617 instructions: 50000002 cycles: 33643591
L1D TOTAL     ACCESS:   11945534  HIT:   11531298  MISS:     414236
L1D LOAD      ACCESS:    7923102  HIT:    7568190  MISS:     354912
L1D RFO       ACCESS:    4022432  HIT:    3963108  MISS:      59324
L1D PREFETCH  ACCESS:          0  HIT:          0  MISS:          0
L1D WRITEBACK ACCESS:          0  HIT:          0  MISS:          0
L1D PREFETCH  REQUESTED:          0  ISSUED:          0  USEFUL:          0  USELESS:          0
L1D AVERAGE MISS LATENCY: 82.5363 cycles
L1I TOTAL     ACCESS:   10152834  HIT:    9876083  MISS:     276751
L1I LOAD      ACCESS:    2093722  HIT:    1987288  MISS:     106434
L1I RFO       ACCESS:          0  HIT:          0  MISS:          0
L1I PREFETCH  ACCESS:    8059112  HIT:    7888795  MISS:     170317
L1I WRITEBACK ACCESS:          0  HIT:          0  MISS:          0
L1I PREFETCH  REQUESTED:   10720997  ISSUED:   10720629  USEFUL:     168211  USELESS:       2153
L1I AVERAGE MISS LATENCY: 11.7177 cycles
L2C TOTAL     ACCESS:     842478  HIT:     590859  MISS:     251619
L2C LOAD      ACCESS:     395321  HIT:     200931  MISS:     194390
L2C RFO       ACCESS:      59322  HIT:      15831  MISS:      43491
L2C PREFETCH  ACCESS:     236305  HIT:     223018  MISS:      13287
L2C WRITEBACK ACCESS:     151530  HIT:     151079  MISS:        451
L2C PREFETCH  REQUESTED:          0  ISSUED:          0  USEFUL:       5248  USELESS:       7422
L2C AVERAGE MISS LATENCY: 128.479 cycles
LLC TOTAL     ACCESS:     355487  HIT:     215015  MISS:     140472
LLC LOAD      ACCESS:     194390  HIT:      95713  MISS:      98677
LLC RFO       ACCESS:      43491  HIT:       9008  MISS:      34483
LLC PREFETCH  ACCESS:      13287  HIT:       6130  MISS:       7157
LLC WRITEBACK ACCESS:     104319  HIT:     104164  MISS:        155
LLC PREFETCH  REQUESTED:          0  ISSUED:          0  USEFUL:       2428  USELESS:       3648
LLC AVERAGE MISS LATENCY: 194.374 cycles
CPU 0 L1I FDIP final stats

DRAM Statistics
 CHANNEL 0
 RQ ROW_BUFFER_HIT:      26628  ROW_BUFFER_MISS:     113680
 DBUS_CONGESTED:      81057
 WQ ROW_BUFFER_HIT:      12459  ROW_BUFFER_MISS:      64860  FULL:          0

 AVG_CONGESTED_CYCLE: 6

CPU 0 Branch Prediction Accuracy: 94.2554% MPKI: 9.95914 Average ROB Occupancy at Mispredict: 230.217
Branch type MPKI
BRANCH_DIRECT_JUMP: 0.00482
BRANCH_INDIRECT: 0.08416
BRANCH_CONDITIONAL: 8.74536
BRANCH_DIRECT_CALL: 0.00632
BRANCH_INDIRECT_CALL: 1.00982
BRANCH_RETURN: 0.10866

