
VirtualMemory physical capacity: 8589934592 num_ppages: 2097152
VirtualMemory page size: 4096 log2_page_size: 12
VirtualMemory initalizing ppage free list ... done
VirtualMemory shuffling ppage free list ... done

 (TOTAL 523355 bits 511 Kbits) 
*** ChampSim Multicore Out-of-Order Simulator ***

Warmup Instructions: 50000000
Simulation Instructions: 50000000
Number of CPUs: 1
LLC sets: 2048
LLC ways: 16
Off-chip DRAM Size: 4096 MB Channels: 1 Width: 64-bit Data Rate: 3200 MT/s

CPU 0 runs /home/isaachywong/champsim-pt/ipc1_public/spec_gobmk_002.champsimtrace.xz
CPU 0 Tage branch predictor
CPU 0 L1I FDIP
Basic BTB sets: 2048 ways: 4 indirect buffer size: 4096 RAS size: 32
Heartbeat CPU 0 instructions: 10000003 cycles: 2052879 heartbeat IPC: 4.87121 cumulative IPC: 4.87121 (Simulation time: 0 hr 5 min 7 sec) 
Heartbeat CPU 0 instructions: 20000003 cycles: 4156473 heartbeat IPC: 4.75377 cumulative IPC: 4.81177 (Simulation time: 0 hr 10 min 30 sec) 
Heartbeat CPU 0 instructions: 30000003 cycles: 6230957 heartbeat IPC: 4.82048 cumulative IPC: 4.81467 (Simulation time: 0 hr 16 min 4 sec) 
Heartbeat CPU 0 instructions: 40000001 cycles: 8258214 heartbeat IPC: 4.93277 cumulative IPC: 4.84366 (Simulation time: 0 hr 21 min 35 sec) 
Heartbeat CPU 0 instructions: 50000000 cycles: 10281773 heartbeat IPC: 4.94179 cumulative IPC: 4.86297 (Simulation time: 0 hr 27 min 0 sec) 

Warmup complete CPU 0 instructions: 50000005 cycles: 10281774 (Simulation time: 0 hr 27 min 0 sec) 

Heartbeat CPU 0 instructions: 60000001 cycles: 18012262 heartbeat IPC: 1.29358 cumulative IPC: 1.29358 (Simulation time: 0 hr 30 min 16 sec) 
Heartbeat CPU 0 instructions: 70000002 cycles: 25697915 heartbeat IPC: 1.30113 cumulative IPC: 1.29734 (Simulation time: 0 hr 33 min 30 sec) 
Heartbeat CPU 0 instructions: 80000000 cycles: 33276419 heartbeat IPC: 1.31952 cumulative IPC: 1.30465 (Simulation time: 0 hr 36 min 46 sec) 
Heartbeat CPU 0 instructions: 90000002 cycles: 40417811 heartbeat IPC: 1.40029 cumulative IPC: 1.32731 (Simulation time: 0 hr 39 min 46 sec) 
Heartbeat CPU 0 instructions: 100000004 cycles: 48158649 heartbeat IPC: 1.29185 cumulative IPC: 1.32007 (Simulation time: 0 hr 43 min 1 sec) 
Finished CPU 0 instructions: 50000000 cycles: 37876879 cumulative IPC: 1.32007 (Simulation time: 0 hr 43 min 1 sec) 

ChampSim completed all CPUs

Region of Interest Statistics

CPU 0 cumulative IPC: 1.32007 instructions: 50000000 cycles: 37876879
L1D TOTAL     ACCESS:   10555518  HIT:   10482379  MISS:      73139
L1D LOAD      ACCESS:    6156941  HIT:    6120020  MISS:      36921
L1D RFO       ACCESS:    4398577  HIT:    4362359  MISS:      36218
L1D PREFETCH  ACCESS:          0  HIT:          0  MISS:          0
L1D WRITEBACK ACCESS:          0  HIT:          0  MISS:          0
L1D PREFETCH  REQUESTED:          0  ISSUED:          0  USEFUL:          0  USELESS:          0
L1D AVERAGE MISS LATENCY: 55.8927 cycles
L1I TOTAL     ACCESS:   12576879  HIT:   12142783  MISS:     434096
L1I LOAD      ACCESS:    4331216  HIT:    4099692  MISS:     231524
L1I RFO       ACCESS:          0  HIT:          0  MISS:          0
L1I PREFETCH  ACCESS:    8245663  HIT:    8043091  MISS:     202572
L1I WRITEBACK ACCESS:          0  HIT:          0  MISS:          0
L1I PREFETCH  REQUESTED:   10720217  ISSUED:   10720217  USEFUL:     198770  USELESS:       3819
L1I AVERAGE MISS LATENCY: 7.04973 cycles
L2C TOTAL     ACCESS:     564516  HIT:     540561  MISS:      23955
L2C LOAD      ACCESS:      96630  HIT:      77426  MISS:      19204
L2C RFO       ACCESS:      36215  HIT:      33632  MISS:       2583
L2C PREFETCH  ACCESS:     374385  HIT:     372341  MISS:       2044
L2C WRITEBACK ACCESS:      57286  HIT:      57162  MISS:        124
L2C PREFETCH  REQUESTED:          0  ISSUED:          0  USEFUL:        917  USELESS:        817
L2C AVERAGE MISS LATENCY: 147.977 cycles
LLC TOTAL     ACCESS:      41632  HIT:      23178  MISS:      18454
LLC LOAD      ACCESS:      19203  HIT:       3261  MISS:      15942
LLC RFO       ACCESS:       2583  HIT:        957  MISS:       1626
LLC PREFETCH  ACCESS:       2044  HIT:       1250  MISS:        794
LLC WRITEBACK ACCESS:      17802  HIT:      17710  MISS:         92
LLC PREFETCH  REQUESTED:          0  ISSUED:          0  USEFUL:         54  USELESS:       2785
LLC AVERAGE MISS LATENCY: 166.261 cycles
CPU 0 L1I FDIP final stats

DRAM Statistics
 CHANNEL 0
 RQ ROW_BUFFER_HIT:        817  ROW_BUFFER_MISS:      17545
 DBUS_CONGESTED:       3615
 WQ ROW_BUFFER_HIT:        457  ROW_BUFFER_MISS:       7242  FULL:          0

 AVG_CONGESTED_CYCLE: 6

CPU 0 Branch Prediction Accuracy: 89.2629% MPKI: 18.3252 Average ROB Occupancy at Mispredict: 81.2926
Branch type MPKI
BRANCH_DIRECT_JUMP: 0.01184
BRANCH_INDIRECT: 0.00028
BRANCH_CONDITIONAL: 18.2961
BRANCH_DIRECT_CALL: 0.01106
BRANCH_INDIRECT_CALL: 0.00032
BRANCH_RETURN: 0.00566

