
VirtualMemory physical capacity: 8589934592 num_ppages: 2097152
VirtualMemory page size: 4096 log2_page_size: 12
VirtualMemory initalizing ppage free list ... done
VirtualMemory shuffling ppage free list ... done

 (TAGE 463917)  (LOOP 1248)  (SC 58190)  (TOTAL 523355 bits 511 Kbits)  (TOTAL 523355 bits 511 Kbits) 
*** ChampSim Multicore Out-of-Order Simulator ***

Warmup Instructions: 50000000
Simulation Instructions: 50000000
Number of CPUs: 1
LLC sets: 2048
LLC ways: 16
Off-chip DRAM Size: 4096 MB Channels: 1 Width: 64-bit Data Rate: 3200 MT/s

CPU 0 runs /home/isaachywong/champsim-pt/ipc1_public/client_004.champsimtrace.xz
CPU 0 Tage branch predictor
CPU 0 L1I FDIP
Basic BTB sets: 2048 ways: 4 indirect buffer size: 4096 RAS size: 32
Heartbeat CPU 0 instructions: 10000003 cycles: 2515455 heartbeat IPC: 3.97543 cumulative IPC: 3.97543 (Simulation time: 0 hr 8 min 27 sec) 
Heartbeat CPU 0 instructions: 20000001 cycles: 4941280 heartbeat IPC: 4.12231 cumulative IPC: 4.04753 (Simulation time: 0 hr 13 min 42 sec) 
Heartbeat CPU 0 instructions: 30000004 cycles: 7410442 heartbeat IPC: 4.04996 cumulative IPC: 4.04834 (Simulation time: 0 hr 20 min 29 sec) 
Heartbeat CPU 0 instructions: 40000000 cycles: 9957835 heartbeat IPC: 3.92558 cumulative IPC: 4.01694 (Simulation time: 0 hr 26 min 39 sec) 
Heartbeat CPU 0 instructions: 50000002 cycles: 12386326 heartbeat IPC: 4.11778 cumulative IPC: 4.03671 (Simulation time: 0 hr 34 min 0 sec) 

Warmup complete CPU 0 instructions: 50000002 cycles: 12386326 (Simulation time: 0 hr 34 min 0 sec) 

Heartbeat CPU 0 instructions: 60000001 cycles: 19026191 heartbeat IPC: 1.50605 cumulative IPC: 1.50605 (Simulation time: 0 hr 38 min 59 sec) 
Heartbeat CPU 0 instructions: 70000003 cycles: 25953012 heartbeat IPC: 1.44366 cumulative IPC: 1.4742 (Simulation time: 0 hr 43 min 28 sec) 
Heartbeat CPU 0 instructions: 80000003 cycles: 33334472 heartbeat IPC: 1.35475 cumulative IPC: 1.43211 (Simulation time: 0 hr 48 min 28 sec) 
Heartbeat CPU 0 instructions: 90000002 cycles: 39974853 heartbeat IPC: 1.50594 cumulative IPC: 1.44988 (Simulation time: 0 hr 53 min 21 sec) 
Heartbeat CPU 0 instructions: 100000004 cycles: 46741495 heartbeat IPC: 1.47784 cumulative IPC: 1.45539 (Simulation time: 0 hr 58 min 34 sec) 
Finished CPU 0 instructions: 50000002 cycles: 34355169 cumulative IPC: 1.45539 (Simulation time: 0 hr 58 min 34 sec) 

ChampSim completed all CPUs

Region of Interest Statistics

CPU 0 cumulative IPC: 1.45539 instructions: 50000002 cycles: 34355169
L1D TOTAL     ACCESS:   12404233  HIT:   11876174  MISS:     528059
L1D LOAD      ACCESS:    7634338  HIT:    7235450  MISS:     398888
L1D RFO       ACCESS:    4769895  HIT:    4640724  MISS:     129171
L1D PREFETCH  ACCESS:          0  HIT:          0  MISS:          0
L1D WRITEBACK ACCESS:          0  HIT:          0  MISS:          0
L1D PREFETCH  REQUESTED:          0  ISSUED:          0  USEFUL:          0  USELESS:          0
L1D AVERAGE MISS LATENCY: 30.607 cycles
L1I TOTAL     ACCESS:   14139154  HIT:   13611138  MISS:     528016
L1I LOAD      ACCESS:    3170257  HIT:    2883077  MISS:     287180
L1I RFO       ACCESS:          0  HIT:          0  MISS:          0
L1I PREFETCH  ACCESS:   10968897  HIT:   10728061  MISS:     240836
L1I WRITEBACK ACCESS:          0  HIT:          0  MISS:          0
L1I PREFETCH  REQUESTED:   15533893  ISSUED:   15533562  USEFUL:     229684  USELESS:      11171
L1I AVERAGE MISS LATENCY: 15.1942 cycles
L2C TOTAL     ACCESS:    1247702  HIT:    1007839  MISS:     239863
L2C LOAD      ACCESS:     513749  HIT:     438884  MISS:      74865
L2C RFO       ACCESS:     129160  HIT:      47189  MISS:      81971
L2C PREFETCH  ACCESS:     413091  HIT:     330676  MISS:      82415
L2C WRITEBACK ACCESS:     191702  HIT:     191090  MISS:        612
L2C PREFETCH  REQUESTED:          0  ISSUED:          0  USEFUL:      39287  USELESS:      43026
L2C AVERAGE MISS LATENCY: 75.2601 cycles
LLC TOTAL     ACCESS:     332796  HIT:     244141  MISS:      88655
LLC LOAD      ACCESS:      74863  HIT:      48428  MISS:      26435
LLC RFO       ACCESS:      81971  HIT:      45369  MISS:      36602
LLC PREFETCH  ACCESS:      82415  HIT:      56885  MISS:      25530
LLC WRITEBACK ACCESS:      93547  HIT:      93459  MISS:         88
LLC PREFETCH  REQUESTED:          0  ISSUED:          0  USEFUL:      13213  USELESS:      12128
LLC AVERAGE MISS LATENCY: 149.645 cycles
CPU 0 L1I FDIP final stats

DRAM Statistics
 CHANNEL 0
 RQ ROW_BUFFER_HIT:      18153  ROW_BUFFER_MISS:      70401
 DBUS_CONGESTED:      36087
 WQ ROW_BUFFER_HIT:       7763  ROW_BUFFER_MISS:      25190  FULL:          0

 AVG_CONGESTED_CYCLE: 6

CPU 0 Branch Prediction Accuracy: 95.1701% MPKI: 9.54268 Average ROB Occupancy at Mispredict: 172.243
Branch type MPKI
BRANCH_DIRECT_JUMP: 0.16688
BRANCH_INDIRECT: 0.98636
BRANCH_CONDITIONAL: 5.1818
BRANCH_DIRECT_CALL: 0.3308
BRANCH_INDIRECT_CALL: 2.66182
BRANCH_RETURN: 0.21502

