
VirtualMemory physical capacity: 8589934592 num_ppages: 2097152
VirtualMemory page size: 4096 log2_page_size: 12
VirtualMemory initalizing ppage free list ... done
VirtualMemory shuffling ppage free list ... done

 (TAGE 463917)  (LOOP 1248)  (SC 58190)  (TOTAL 523355 bits 511 Kbits)  (TOTAL 523355 bits 511 Kbits) 
*** ChampSim Multicore Out-of-Order Simulator ***

Warmup Instructions: 50000000
Simulation Instructions: 50000000
Number of CPUs: 1
LLC sets: 2048
LLC ways: 16
Off-chip DRAM Size: 4096 MB Channels: 1 Width: 64-bit Data Rate: 3200 MT/s

CPU 0 runs /home/isaachywong/champsim-pt/ipc1_public/server_033.champsimtrace.xz
CPU 0 Tage branch predictor
CPU 0 L1I FDIP
Basic BTB sets: 2048 ways: 4 indirect buffer size: 4096 RAS size: 32
Heartbeat CPU 0 instructions: 10000000 cycles: 2163596 heartbeat IPC: 4.62193 cumulative IPC: 4.62193 (Simulation time: 0 hr 4 min 34 sec) 
Heartbeat CPU 0 instructions: 20000002 cycles: 4327143 heartbeat IPC: 4.62204 cumulative IPC: 4.62199 (Simulation time: 0 hr 9 min 0 sec) 
Heartbeat CPU 0 instructions: 30000000 cycles: 6487756 heartbeat IPC: 4.62831 cumulative IPC: 4.62409 (Simulation time: 0 hr 13 min 27 sec) 
Heartbeat CPU 0 instructions: 40000000 cycles: 8651176 heartbeat IPC: 4.62231 cumulative IPC: 4.62365 (Simulation time: 0 hr 17 min 54 sec) 
Heartbeat CPU 0 instructions: 50000004 cycles: 10814533 heartbeat IPC: 4.62245 cumulative IPC: 4.62341 (Simulation time: 0 hr 22 min 21 sec) 

Warmup complete CPU 0 instructions: 50000004 cycles: 10814533 (Simulation time: 0 hr 22 min 21 sec) 

Heartbeat CPU 0 instructions: 60000004 cycles: 16458593 heartbeat IPC: 1.77177 cumulative IPC: 1.77177 (Simulation time: 0 hr 32 min 18 sec) 
Heartbeat CPU 0 instructions: 70000002 cycles: 22092442 heartbeat IPC: 1.77499 cumulative IPC: 1.77338 (Simulation time: 0 hr 42 min 15 sec) 
Heartbeat CPU 0 instructions: 80000000 cycles: 28350253 heartbeat IPC: 1.598 cumulative IPC: 1.71079 (Simulation time: 0 hr 52 min 36 sec) 
Heartbeat CPU 0 instructions: 90000001 cycles: 34124254 heartbeat IPC: 1.7319 cumulative IPC: 1.71602 (Simulation time: 1 hr 2 min 36 sec) 
Heartbeat CPU 0 instructions: 100000001 cycles: 39780908 heartbeat IPC: 1.76783 cumulative IPC: 1.72614 (Simulation time: 1 hr 12 min 32 sec) 
Finished CPU 0 instructions: 50000000 cycles: 28966376 cumulative IPC: 1.72614 (Simulation time: 1 hr 12 min 32 sec) 

ChampSim completed all CPUs

Region of Interest Statistics

CPU 0 cumulative IPC: 1.72614 instructions: 50000000 cycles: 28966376
L1D TOTAL     ACCESS:   12153184  HIT:   11517060  MISS:     636124
L1D LOAD      ACCESS:    5890512  HIT:    5345955  MISS:     544557
L1D RFO       ACCESS:    6262672  HIT:    6171105  MISS:      91567
L1D PREFETCH  ACCESS:          0  HIT:          0  MISS:          0
L1D WRITEBACK ACCESS:          0  HIT:          0  MISS:          0
L1D PREFETCH  REQUESTED:          0  ISSUED:          0  USEFUL:          0  USELESS:          0
L1D AVERAGE MISS LATENCY: 20.6338 cycles
L1I TOTAL     ACCESS:   28605936  HIT:   25116444  MISS:    3489492
L1I LOAD      ACCESS:    6796517  HIT:    4549381  MISS:    2247136
L1I RFO       ACCESS:          0  HIT:          0  MISS:          0
L1I PREFETCH  ACCESS:   21809419  HIT:   20567063  MISS:    1242356
L1I WRITEBACK ACCESS:          0  HIT:          0  MISS:          0
L1I PREFETCH  REQUESTED:   29014796  ISSUED:   29014791  USEFUL:    1151224  USELESS:      91093
L1I AVERAGE MISS LATENCY: 10.0365 cycles
L2C TOTAL     ACCESS:    4365021  HIT:    4177189  MISS:     187832
L2C LOAD      ACCESS:    2338791  HIT:    2186219  MISS:     152572
L2C RFO       ACCESS:      91490  HIT:      67664  MISS:      23826
L2C PREFETCH  ACCESS:    1695237  HIT:    1685631  MISS:       9606
L2C WRITEBACK ACCESS:     239503  HIT:     237675  MISS:       1828
L2C PREFETCH  REQUESTED:          0  ISSUED:          0  USEFUL:       4400  USELESS:       5216
L2C AVERAGE MISS LATENCY: 34.6062 cycles
LLC TOTAL     ACCESS:     282490  HIT:     264375  MISS:      18115
LLC LOAD      ACCESS:     152572  HIT:     139404  MISS:      13168
LLC RFO       ACCESS:      23826  HIT:      19446  MISS:       4380
LLC PREFETCH  ACCESS:       9606  HIT:       9130  MISS:        476
LLC WRITEBACK ACCESS:      96486  HIT:      96395  MISS:         91
LLC PREFETCH  REQUESTED:          0  ISSUED:          0  USEFUL:        212  USELESS:        858
LLC AVERAGE MISS LATENCY: 153.463 cycles
CPU 0 L1I FDIP final stats

DRAM Statistics
 CHANNEL 0
 RQ ROW_BUFFER_HIT:       1537  ROW_BUFFER_MISS:      16486
 DBUS_CONGESTED:       6975
 WQ ROW_BUFFER_HIT:       1591  ROW_BUFFER_MISS:       8725  FULL:          0

 AVG_CONGESTED_CYCLE: 6

CPU 0 Branch Prediction Accuracy: 99.2833% MPKI: 1.40234 Average ROB Occupancy at Mispredict: 182.457
Branch type MPKI
BRANCH_DIRECT_JUMP: 0.0017
BRANCH_INDIRECT: 0.44454
BRANCH_CONDITIONAL: 0.12866
BRANCH_DIRECT_CALL: 0.00394
BRANCH_INDIRECT_CALL: 0.2182
BRANCH_RETURN: 0.6053

