
VirtualMemory physical capacity: 8589934592 num_ppages: 2097152
VirtualMemory page size: 4096 log2_page_size: 12
VirtualMemory initalizing ppage free list ... done
VirtualMemory shuffling ppage free list ... done

 (TAGE 463917)  (LOOP 1248)  (SC 58190)  (TOTAL 523355 bits 511 Kbits)  (TOTAL 523355 bits 511 Kbits) 
*** ChampSim Multicore Out-of-Order Simulator ***

Warmup Instructions: 50000000
Simulation Instructions: 50000000
Number of CPUs: 1
LLC sets: 2048
LLC ways: 16
Off-chip DRAM Size: 4096 MB Channels: 1 Width: 64-bit Data Rate: 3200 MT/s

CPU 0 runs /home/isaachywong/champsim-pt/ipc1_public/server_016.champsimtrace.xz
CPU 0 Tage branch predictor
CPU 0 L1I FDIP
Basic BTB sets: 2048 ways: 4 indirect buffer size: 4096 RAS size: 32
Heartbeat CPU 0 instructions: 10000001 cycles: 2162459 heartbeat IPC: 4.62437 cumulative IPC: 4.62437 (Simulation time: 0 hr 5 min 17 sec) 
Heartbeat CPU 0 instructions: 20000002 cycles: 4325922 heartbeat IPC: 4.62222 cumulative IPC: 4.62329 (Simulation time: 0 hr 10 min 24 sec) 
Heartbeat CPU 0 instructions: 30000002 cycles: 6481395 heartbeat IPC: 4.63935 cumulative IPC: 4.62863 (Simulation time: 0 hr 15 min 29 sec) 
Heartbeat CPU 0 instructions: 40000003 cycles: 8524693 heartbeat IPC: 4.89405 cumulative IPC: 4.69225 (Simulation time: 0 hr 19 min 38 sec) 
Heartbeat CPU 0 instructions: 50000003 cycles: 10524693 heartbeat IPC: 5 cumulative IPC: 4.75073 (Simulation time: 0 hr 23 min 28 sec) 

Warmup complete CPU 0 instructions: 50000003 cycles: 10524693 (Simulation time: 0 hr 23 min 28 sec) 

Heartbeat CPU 0 instructions: 60000004 cycles: 13300821 heartbeat IPC: 3.60214 cumulative IPC: 3.60214 (Simulation time: 0 hr 28 min 1 sec) 
Heartbeat CPU 0 instructions: 70000000 cycles: 19466862 heartbeat IPC: 1.62179 cumulative IPC: 2.23659 (Simulation time: 0 hr 35 min 48 sec) 
Heartbeat CPU 0 instructions: 80000000 cycles: 25746986 heartbeat IPC: 1.59233 cumulative IPC: 1.97079 (Simulation time: 0 hr 43 min 42 sec) 
Heartbeat CPU 0 instructions: 90000001 cycles: 31820123 heartbeat IPC: 1.6466 cumulative IPC: 1.87834 (Simulation time: 0 hr 51 min 21 sec) 
Heartbeat CPU 0 instructions: 100000002 cycles: 38013554 heartbeat IPC: 1.61461 cumulative IPC: 1.81892 (Simulation time: 0 hr 59 min 8 sec) 
Finished CPU 0 instructions: 50000000 cycles: 27488863 cumulative IPC: 1.81892 (Simulation time: 0 hr 59 min 8 sec) 

ChampSim completed all CPUs

Region of Interest Statistics

CPU 0 cumulative IPC: 1.81892 instructions: 50000000 cycles: 27488863
L1D TOTAL     ACCESS:   11566058  HIT:   10737628  MISS:     828430
L1D LOAD      ACCESS:    6362524  HIT:    5760062  MISS:     602462
L1D RFO       ACCESS:    5203534  HIT:    4977566  MISS:     225968
L1D PREFETCH  ACCESS:          0  HIT:          0  MISS:          0
L1D WRITEBACK ACCESS:          0  HIT:          0  MISS:          0
L1D PREFETCH  REQUESTED:          0  ISSUED:          0  USEFUL:          0  USELESS:          0
L1D AVERAGE MISS LATENCY: 20.4014 cycles
L1I TOTAL     ACCESS:   18055214  HIT:   15830767  MISS:    2224447
L1I LOAD      ACCESS:    4779283  HIT:    3641719  MISS:    1137564
L1I RFO       ACCESS:          0  HIT:          0  MISS:          0
L1I PREFETCH  ACCESS:   13275931  HIT:   12189048  MISS:    1086883
L1I WRITEBACK ACCESS:          0  HIT:          0  MISS:          0
L1I PREFETCH  REQUESTED:   19385819  ISSUED:   19385706  USEFUL:     994004  USELESS:      92908
L1I AVERAGE MISS LATENCY: 9.85186 cycles
L2C TOTAL     ACCESS:    3438867  HIT:    3029957  MISS:     408910
L2C LOAD      ACCESS:    1216659  HIT:    1045542  MISS:     171117
L2C RFO       ACCESS:     225866  HIT:     171690  MISS:      54176
L2C PREFETCH  ACCESS:    1610066  HIT:    1431794  MISS:     178272
L2C WRITEBACK ACCESS:     386276  HIT:     380931  MISS:       5345
L2C PREFETCH  REQUESTED:          0  ISSUED:          0  USEFUL:      96096  USELESS:      81974
L2C AVERAGE MISS LATENCY: 31.0373 cycles
LLC TOTAL     ACCESS:     485492  HIT:     460405  MISS:      25087
LLC LOAD      ACCESS:     171116  HIT:     161399  MISS:       9717
LLC RFO       ACCESS:      54176  HIT:      39950  MISS:      14226
LLC PREFETCH  ACCESS:     178272  HIT:     177223  MISS:       1049
LLC WRITEBACK ACCESS:      81928  HIT:      81833  MISS:         95
LLC PREFETCH  REQUESTED:          0  ISSUED:          0  USEFUL:        476  USELESS:       1417
LLC AVERAGE MISS LATENCY: 184.153 cycles
CPU 0 L1I FDIP final stats

DRAM Statistics
 CHANNEL 0
 RQ ROW_BUFFER_HIT:       8833  ROW_BUFFER_MISS:      16157
 DBUS_CONGESTED:      16983
 WQ ROW_BUFFER_HIT:       1101  ROW_BUFFER_MISS:      11779  FULL:          0

 AVG_CONGESTED_CYCLE: 6

CPU 0 Branch Prediction Accuracy: 98.5749% MPKI: 2.58678 Average ROB Occupancy at Mispredict: 227.266
Branch type MPKI
BRANCH_DIRECT_JUMP: 0.18468
BRANCH_INDIRECT: 0.34456
BRANCH_CONDITIONAL: 1.03924
BRANCH_DIRECT_CALL: 0.5351
BRANCH_INDIRECT_CALL: 0.36648
BRANCH_RETURN: 0.11672

