
VirtualMemory physical capacity: 8589934592 num_ppages: 2097152
VirtualMemory page size: 4096 log2_page_size: 12
VirtualMemory initalizing ppage free list ... done
VirtualMemory shuffling ppage free list ... done

 (TAGE 463917)  (LOOP 1248)  (SC 58190)  (TOTAL 523355 bits 511 Kbits)  (TOTAL 523355 bits 511 Kbits) 
*** ChampSim Multicore Out-of-Order Simulator ***

Warmup Instructions: 50000000
Simulation Instructions: 50000000
Number of CPUs: 1
LLC sets: 2048
LLC ways: 16
Off-chip DRAM Size: 4096 MB Channels: 1 Width: 64-bit Data Rate: 3200 MT/s

CPU 0 runs /home/isaachywong/champsim-pt/ipc1_public/client_004.champsimtrace.xz
CPU 0 Tage branch predictor
CPU 0 L1I FDIP
Basic BTB sets: 2048 ways: 4 indirect buffer size: 4096 RAS size: 32
Heartbeat CPU 0 instructions: 10000003 cycles: 2515425 heartbeat IPC: 3.97547 cumulative IPC: 3.97547 (Simulation time: 0 hr 8 min 30 sec) 
Heartbeat CPU 0 instructions: 20000001 cycles: 4941010 heartbeat IPC: 4.12272 cumulative IPC: 4.04776 (Simulation time: 0 hr 13 min 46 sec) 
Heartbeat CPU 0 instructions: 30000004 cycles: 7410008 heartbeat IPC: 4.05023 cumulative IPC: 4.04858 (Simulation time: 0 hr 20 min 37 sec) 
Heartbeat CPU 0 instructions: 40000002 cycles: 9957060 heartbeat IPC: 3.92611 cumulative IPC: 4.01725 (Simulation time: 0 hr 26 min 48 sec) 
Heartbeat CPU 0 instructions: 50000002 cycles: 12385464 heartbeat IPC: 4.11793 cumulative IPC: 4.03699 (Simulation time: 0 hr 34 min 13 sec) 

Warmup complete CPU 0 instructions: 50000002 cycles: 12385464 (Simulation time: 0 hr 34 min 13 sec) 

Heartbeat CPU 0 instructions: 60000001 cycles: 19076312 heartbeat IPC: 1.49458 cumulative IPC: 1.49458 (Simulation time: 0 hr 39 min 10 sec) 
Heartbeat CPU 0 instructions: 70000003 cycles: 26021899 heartbeat IPC: 1.43976 cumulative IPC: 1.46666 (Simulation time: 0 hr 43 min 38 sec) 
Heartbeat CPU 0 instructions: 80000003 cycles: 33477453 heartbeat IPC: 1.34128 cumulative IPC: 1.42234 (Simulation time: 0 hr 48 min 38 sec) 
Heartbeat CPU 0 instructions: 90000002 cycles: 40197537 heartbeat IPC: 1.48808 cumulative IPC: 1.43822 (Simulation time: 0 hr 53 min 33 sec) 
Heartbeat CPU 0 instructions: 100000004 cycles: 47036065 heartbeat IPC: 1.4623 cumulative IPC: 1.44298 (Simulation time: 0 hr 58 min 44 sec) 
Finished CPU 0 instructions: 50000002 cycles: 34650601 cumulative IPC: 1.44298 (Simulation time: 0 hr 58 min 44 sec) 

ChampSim completed all CPUs

Region of Interest Statistics

CPU 0 cumulative IPC: 1.44298 instructions: 50000002 cycles: 34650601
L1D TOTAL     ACCESS:   12404558  HIT:   11876510  MISS:     528048
L1D LOAD      ACCESS:    7636467  HIT:    7237583  MISS:     398884
L1D RFO       ACCESS:    4768091  HIT:    4638927  MISS:     129164
L1D PREFETCH  ACCESS:          0  HIT:          0  MISS:          0
L1D WRITEBACK ACCESS:          0  HIT:          0  MISS:          0
L1D PREFETCH  REQUESTED:          0  ISSUED:          0  USEFUL:          0  USELESS:          0
L1D AVERAGE MISS LATENCY: 30.75 cycles
L1I TOTAL     ACCESS:   14102852  HIT:   13573276  MISS:     529576
L1I LOAD      ACCESS:    3167894  HIT:    2878462  MISS:     289432
L1I RFO       ACCESS:          0  HIT:          0  MISS:          0
L1I PREFETCH  ACCESS:   10934958  HIT:   10694814  MISS:     240144
L1I WRITEBACK ACCESS:          0  HIT:          0  MISS:          0
L1I PREFETCH  REQUESTED:   15475923  ISSUED:   15474885  USEFUL:     228003  USELESS:      12163
L1I AVERAGE MISS LATENCY: 16.8523 cycles
L2C TOTAL     ACCESS:    1249252  HIT:    1006816  MISS:     242436
L2C LOAD      ACCESS:     520724  HIT:     439334  MISS:      81390
L2C RFO       ACCESS:     129156  HIT:      46363  MISS:      82793
L2C PREFETCH  ACCESS:     407672  HIT:     330148  MISS:      77524
L2C WRITEBACK ACCESS:     191700  HIT:     190971  MISS:        729
L2C PREFETCH  REQUESTED:          0  ISSUED:          0  USEFUL:      37000  USELESS:      40393
L2C AVERAGE MISS LATENCY: 75.1406 cycles
LLC TOTAL     ACCESS:     336371  HIT:     246945  MISS:      89426
LLC LOAD      ACCESS:      81390  HIT:      51388  MISS:      30002
LLC RFO       ACCESS:      82792  HIT:      45726  MISS:      37066
LLC PREFETCH  ACCESS:      77524  HIT:      55256  MISS:      22268
LLC WRITEBACK ACCESS:      94665  HIT:      94575  MISS:         90
LLC PREFETCH  REQUESTED:          0  ISSUED:          0  USEFUL:      11164  USELESS:      11402
LLC AVERAGE MISS LATENCY: 149.646 cycles
CPU 0 L1I FDIP final stats

DRAM Statistics
 CHANNEL 0
 RQ ROW_BUFFER_HIT:      18299  ROW_BUFFER_MISS:      71017
 DBUS_CONGESTED:      35939
 WQ ROW_BUFFER_HIT:       8428  ROW_BUFFER_MISS:      24717  FULL:          0

 AVG_CONGESTED_CYCLE: 6

CPU 0 Branch Prediction Accuracy: 94.9955% MPKI: 9.8876 Average ROB Occupancy at Mispredict: 167.791
Branch type MPKI
BRANCH_DIRECT_JUMP: 0.28088
BRANCH_INDIRECT: 0.98636
BRANCH_CONDITIONAL: 5.27284
BRANCH_DIRECT_CALL: 0.47068
BRANCH_INDIRECT_CALL: 2.66182
BRANCH_RETURN: 0.21502

