
VirtualMemory physical capacity: 8589934592 num_ppages: 2097152
VirtualMemory page size: 4096 log2_page_size: 12
VirtualMemory initalizing ppage free list ... done
VirtualMemory shuffling ppage free list ... done

 (TAGE 463917)  (LOOP 1248)  (SC 58190)  (TOTAL 523355 bits 511 Kbits)  (TOTAL 523355 bits 511 Kbits) 
*** ChampSim Multicore Out-of-Order Simulator ***

Warmup Instructions: 50000000
Simulation Instructions: 50000000
Number of CPUs: 1
LLC sets: 2048
LLC ways: 16
Off-chip DRAM Size: 4096 MB Channels: 1 Width: 64-bit Data Rate: 3200 MT/s

CPU 0 runs /home/isaachywong/champsim-pt/ipc1_public/server_013.champsimtrace.xz
CPU 0 Tage branch predictor
CPU 0 L1I FDIP
Basic BTB sets: 2048 ways: 4 indirect buffer size: 4096 RAS size: 32
Heartbeat CPU 0 instructions: 10000000 cycles: 2088290 heartbeat IPC: 4.78861 cumulative IPC: 4.78861 (Simulation time: 0 hr 6 min 8 sec) 
Heartbeat CPU 0 instructions: 20000004 cycles: 4164328 heartbeat IPC: 4.81687 cumulative IPC: 4.8027 (Simulation time: 0 hr 12 min 7 sec) 
Heartbeat CPU 0 instructions: 30000002 cycles: 6241493 heartbeat IPC: 4.81425 cumulative IPC: 4.80654 (Simulation time: 0 hr 18 min 7 sec) 
Heartbeat CPU 0 instructions: 40000000 cycles: 8319084 heartbeat IPC: 4.81327 cumulative IPC: 4.80822 (Simulation time: 0 hr 24 min 4 sec) 
Heartbeat CPU 0 instructions: 50000002 cycles: 10391067 heartbeat IPC: 4.8263 cumulative IPC: 4.81183 (Simulation time: 0 hr 30 min 11 sec) 

Warmup complete CPU 0 instructions: 50000002 cycles: 10391067 (Simulation time: 0 hr 30 min 11 sec) 

Heartbeat CPU 0 instructions: 60000003 cycles: 16360630 heartbeat IPC: 1.67516 cumulative IPC: 1.67516 (Simulation time: 0 hr 37 min 9 sec) 
Heartbeat CPU 0 instructions: 70000002 cycles: 22472202 heartbeat IPC: 1.63624 cumulative IPC: 1.65547 (Simulation time: 0 hr 44 min 12 sec) 
Heartbeat CPU 0 instructions: 80000002 cycles: 28160102 heartbeat IPC: 1.75812 cumulative IPC: 1.68833 (Simulation time: 0 hr 50 min 55 sec) 
Heartbeat CPU 0 instructions: 90000003 cycles: 33994998 heartbeat IPC: 1.71383 cumulative IPC: 1.69463 (Simulation time: 0 hr 57 min 48 sec) 
Heartbeat CPU 0 instructions: 100000002 cycles: 39811780 heartbeat IPC: 1.71916 cumulative IPC: 1.69948 (Simulation time: 1 hr 4 min 42 sec) 
Finished CPU 0 instructions: 50000000 cycles: 29420713 cumulative IPC: 1.69948 (Simulation time: 1 hr 4 min 42 sec) 

ChampSim completed all CPUs

Region of Interest Statistics

CPU 0 cumulative IPC: 1.69948 instructions: 50000000 cycles: 29420713
L1D TOTAL     ACCESS:   10738438  HIT:   10091404  MISS:     647034
L1D LOAD      ACCESS:    5821723  HIT:    5261160  MISS:     560563
L1D RFO       ACCESS:    4916715  HIT:    4830244  MISS:      86471
L1D PREFETCH  ACCESS:          0  HIT:          0  MISS:          0
L1D WRITEBACK ACCESS:          0  HIT:          0  MISS:          0
L1D PREFETCH  REQUESTED:          0  ISSUED:          0  USEFUL:          0  USELESS:          0
L1D AVERAGE MISS LATENCY: 38.7815 cycles
L1I TOTAL     ACCESS:   17340152  HIT:   15914453  MISS:    1425699
L1I LOAD      ACCESS:    5504867  HIT:    4796717  MISS:     708150
L1I RFO       ACCESS:          0  HIT:          0  MISS:          0
L1I PREFETCH  ACCESS:   11835285  HIT:   11117736  MISS:     717549
L1I WRITEBACK ACCESS:          0  HIT:          0  MISS:          0
L1I PREFETCH  REQUESTED:   16517092  ISSUED:   16516758  USEFUL:     671805  USELESS:      45786
L1I AVERAGE MISS LATENCY: 13.0937 cycles
L2C TOTAL     ACCESS:    2328682  HIT:    1301306  MISS:    1027376
L2C LOAD      ACCESS:     839426  HIT:     452113  MISS:     387313
L2C RFO       ACCESS:      86466  HIT:      34440  MISS:      52026
L2C PREFETCH  ACCESS:    1146785  HIT:     561652  MISS:     585133
L2C WRITEBACK ACCESS:     256005  HIT:     253101  MISS:       2904
L2C PREFETCH  REQUESTED:          0  ISSUED:          0  USEFUL:     180724  USELESS:     404278
L2C AVERAGE MISS LATENCY: 31.6627 cycles
LLC TOTAL     ACCESS:    1179247  HIT:    1099725  MISS:      79522
LLC LOAD      ACCESS:     387303  HIT:     326955  MISS:      60348
LLC RFO       ACCESS:      52015  HIT:      40743  MISS:      11272
LLC PREFETCH  ACCESS:     585133  HIT:     577306  MISS:       7827
LLC WRITEBACK ACCESS:     154796  HIT:     154721  MISS:         75
LLC PREFETCH  REQUESTED:          0  ISSUED:          0  USEFUL:       4684  USELESS:       3708
LLC AVERAGE MISS LATENCY: 151.38 cycles
CPU 0 L1I FDIP final stats

DRAM Statistics
 CHANNEL 0
 RQ ROW_BUFFER_HIT:       9489  ROW_BUFFER_MISS:      69952
 DBUS_CONGESTED:      36797
 WQ ROW_BUFFER_HIT:      13197  ROW_BUFFER_MISS:      40317  FULL:          0

 AVG_CONGESTED_CYCLE: 6

CPU 0 Branch Prediction Accuracy: 97.5943% MPKI: 4.46812 Average ROB Occupancy at Mispredict: 198.245
Branch type MPKI
BRANCH_DIRECT_JUMP: 0.31126
BRANCH_INDIRECT: 0.29844
BRANCH_CONDITIONAL: 1.73454
BRANCH_DIRECT_CALL: 0.51718
BRANCH_INDIRECT_CALL: 0.12584
BRANCH_RETURN: 1.48086

