
VirtualMemory physical capacity: 8589934592 num_ppages: 2097152
VirtualMemory page size: 4096 log2_page_size: 12
VirtualMemory initalizing ppage free list ... done
VirtualMemory shuffling ppage free list ... done

 (TOTAL 523355 bits 511 Kbits) 
*** ChampSim Multicore Out-of-Order Simulator ***

Warmup Instructions: 50000000
Simulation Instructions: 50000000
Number of CPUs: 1
LLC sets: 2048
LLC ways: 16
Off-chip DRAM Size: 4096 MB Channels: 1 Width: 64-bit Data Rate: 3200 MT/s

CPU 0 runs /home/isaachywong/champsim-pt/ipc1_public/spec_x264_001.champsimtrace.xz
CPU 0 Tage branch predictor
CPU 0 L1I FDIP
Basic BTB sets: 2048 ways: 4 indirect buffer size: 4096 RAS size: 32
Heartbeat CPU 0 instructions: 10000004 cycles: 2097793 heartbeat IPC: 4.76692 cumulative IPC: 4.76692 (Simulation time: 0 hr 4 min 47 sec) 
Heartbeat CPU 0 instructions: 20000002 cycles: 4164779 heartbeat IPC: 4.83796 cumulative IPC: 4.80218 (Simulation time: 0 hr 9 min 35 sec) 
Heartbeat CPU 0 instructions: 30000001 cycles: 6252140 heartbeat IPC: 4.79074 cumulative IPC: 4.79836 (Simulation time: 0 hr 14 min 26 sec) 
Heartbeat CPU 0 instructions: 40000002 cycles: 8341904 heartbeat IPC: 4.78523 cumulative IPC: 4.79507 (Simulation time: 0 hr 19 min 11 sec) 
Heartbeat CPU 0 instructions: 50000001 cycles: 10411451 heartbeat IPC: 4.83197 cumulative IPC: 4.8024 (Simulation time: 0 hr 23 min 59 sec) 

Warmup complete CPU 0 instructions: 50000001 cycles: 10411451 (Simulation time: 0 hr 23 min 59 sec) 

Heartbeat CPU 0 instructions: 60000004 cycles: 13733685 heartbeat IPC: 3.01002 cumulative IPC: 3.01002 (Simulation time: 0 hr 27 min 40 sec) 
Heartbeat CPU 0 instructions: 70000004 cycles: 17039959 heartbeat IPC: 3.02455 cumulative IPC: 3.01727 (Simulation time: 0 hr 31 min 14 sec) 
Heartbeat CPU 0 instructions: 80000002 cycles: 20470234 heartbeat IPC: 2.91522 cumulative IPC: 2.98247 (Simulation time: 0 hr 34 min 51 sec) 
Heartbeat CPU 0 instructions: 90000000 cycles: 23844043 heartbeat IPC: 2.96401 cumulative IPC: 2.97783 (Simulation time: 0 hr 38 min 30 sec) 
Heartbeat CPU 0 instructions: 100000004 cycles: 27179977 heartbeat IPC: 2.99766 cumulative IPC: 2.98178 (Simulation time: 0 hr 42 min 5 sec) 
Finished CPU 0 instructions: 50000003 cycles: 16768526 cumulative IPC: 2.98178 (Simulation time: 0 hr 42 min 5 sec) 

ChampSim completed all CPUs

Region of Interest Statistics

CPU 0 cumulative IPC: 2.98178 instructions: 50000003 cycles: 16768526
L1D TOTAL     ACCESS:    6724570  HIT:    6656347  MISS:      68223
L1D LOAD      ACCESS:    3850283  HIT:    3802717  MISS:      47566
L1D RFO       ACCESS:    2874287  HIT:    2853630  MISS:      20657
L1D PREFETCH  ACCESS:          0  HIT:          0  MISS:          0
L1D WRITEBACK ACCESS:          0  HIT:          0  MISS:          0
L1D PREFETCH  REQUESTED:          0  ISSUED:          0  USEFUL:          0  USELESS:          0
L1D AVERAGE MISS LATENCY: 92.6092 cycles
L1I TOTAL     ACCESS:    6794222  HIT:    6532883  MISS:     261339
L1I LOAD      ACCESS:     937183  HIT:     857964  MISS:      79219
L1I RFO       ACCESS:          0  HIT:          0  MISS:          0
L1I PREFETCH  ACCESS:    5857039  HIT:    5674919  MISS:     182120
L1I WRITEBACK ACCESS:          0  HIT:          0  MISS:          0
L1I PREFETCH  REQUESTED:    7022276  ISSUED:    7022072  USEFUL:     181271  USELESS:        868
L1I AVERAGE MISS LATENCY: 8.58807 cycles
L2C TOTAL     ACCESS:     354939  HIT:     318673  MISS:      36266
L2C LOAD      ACCESS:      64795  HIT:      44114  MISS:      20681
L2C RFO       ACCESS:      20239  HIT:       6787  MISS:      13452
L2C PREFETCH  ACCESS:     244108  HIT:     242065  MISS:       2043
L2C WRITEBACK ACCESS:      25797  HIT:      25707  MISS:         90
L2C PREFETCH  REQUESTED:          0  ISSUED:          0  USEFUL:        772  USELESS:       1025
L2C AVERAGE MISS LATENCY: 155.945 cycles
LLC TOTAL     ACCESS:      49793  HIT:      21973  MISS:      27820
LLC LOAD      ACCESS:      20680  HIT:       6232  MISS:      14448
LLC RFO       ACCESS:      13452  HIT:        441  MISS:      13011
LLC PREFETCH  ACCESS:       2043  HIT:       1760  MISS:        283
LLC WRITEBACK ACCESS:      13618  HIT:      13540  MISS:         78
LLC PREFETCH  REQUESTED:          0  ISSUED:          0  USEFUL:         88  USELESS:        669
LLC AVERAGE MISS LATENCY: 177.283 cycles
CPU 0 L1I FDIP final stats

DRAM Statistics
 CHANNEL 0
 RQ ROW_BUFFER_HIT:       2578  ROW_BUFFER_MISS:      25164
 DBUS_CONGESTED:      12508
 WQ ROW_BUFFER_HIT:        643  ROW_BUFFER_MISS:      10968  FULL:          0

 AVG_CONGESTED_CYCLE: 6

CPU 0 Branch Prediction Accuracy: 93.9701% MPKI: 3.69246 Average ROB Occupancy at Mispredict: 174.94
Branch type MPKI
BRANCH_DIRECT_JUMP: 0.00052
BRANCH_INDIRECT: 0
BRANCH_CONDITIONAL: 3.62524
BRANCH_DIRECT_CALL: 8e-05
BRANCH_INDIRECT_CALL: 0.06662
BRANCH_RETURN: 0

