
VirtualMemory physical capacity: 8589934592 num_ppages: 2097152
VirtualMemory page size: 4096 log2_page_size: 12
VirtualMemory initalizing ppage free list ... done
VirtualMemory shuffling ppage free list ... done

 (TOTAL 523355 bits 511 Kbits) 
*** ChampSim Multicore Out-of-Order Simulator ***

Warmup Instructions: 50000000
Simulation Instructions: 50000000
Number of CPUs: 1
LLC sets: 2048
LLC ways: 16
Off-chip DRAM Size: 4096 MB Channels: 1 Width: 64-bit Data Rate: 3200 MT/s

CPU 0 runs /home/isaachywong/champsim-pt/ipc1_public/client_005.champsimtrace.xz
CPU 0 Tage branch predictor
CPU 0 L1I FDIP
Basic BTB sets: 2048 ways: 4 indirect buffer size: 4096 RAS size: 32
Heartbeat CPU 0 instructions: 10000000 cycles: 2187929 heartbeat IPC: 4.57053 cumulative IPC: 4.57053 (Simulation time: 0 hr 3 min 49 sec) 
Heartbeat CPU 0 instructions: 20000001 cycles: 4345383 heartbeat IPC: 4.63509 cumulative IPC: 4.60259 (Simulation time: 0 hr 7 min 32 sec) 
Heartbeat CPU 0 instructions: 30000001 cycles: 6504112 heartbeat IPC: 4.63236 cumulative IPC: 4.61247 (Simulation time: 0 hr 11 min 40 sec) 
Heartbeat CPU 0 instructions: 40000000 cycles: 8660355 heartbeat IPC: 4.6377 cumulative IPC: 4.61875 (Simulation time: 0 hr 15 min 47 sec) 
Heartbeat CPU 0 instructions: 50000000 cycles: 10854980 heartbeat IPC: 4.55659 cumulative IPC: 4.60618 (Simulation time: 0 hr 18 min 57 sec) 

Warmup complete CPU 0 instructions: 50000005 cycles: 10854981 (Simulation time: 0 hr 18 min 57 sec) 

Heartbeat CPU 0 instructions: 60000002 cycles: 17365212 heartbeat IPC: 1.53604 cumulative IPC: 1.53604 (Simulation time: 0 hr 26 min 44 sec) 
Heartbeat CPU 0 instructions: 70000004 cycles: 24392993 heartbeat IPC: 1.42292 cumulative IPC: 1.47732 (Simulation time: 0 hr 35 min 8 sec) 
Heartbeat CPU 0 instructions: 80000002 cycles: 31074909 heartbeat IPC: 1.49658 cumulative IPC: 1.48368 (Simulation time: 0 hr 43 min 25 sec) 
Heartbeat CPU 0 instructions: 90000003 cycles: 39643147 heartbeat IPC: 1.1671 cumulative IPC: 1.38946 (Simulation time: 0 hr 51 min 42 sec) 
Heartbeat CPU 0 instructions: 100000004 cycles: 46265370 heartbeat IPC: 1.51007 cumulative IPC: 1.41201 (Simulation time: 1 hr 0 min 4 sec) 
Finished CPU 0 instructions: 50000004 cycles: 35410390 cumulative IPC: 1.41201 (Simulation time: 1 hr 0 min 4 sec) 

ChampSim completed all CPUs

Region of Interest Statistics

CPU 0 cumulative IPC: 1.41201 instructions: 50000004 cycles: 35410390
L1D TOTAL     ACCESS:   12888908  HIT:   12501614  MISS:     387294
L1D LOAD      ACCESS:    6106855  HIT:    5914896  MISS:     191959
L1D RFO       ACCESS:    6782053  HIT:    6586718  MISS:     195335
L1D PREFETCH  ACCESS:          0  HIT:          0  MISS:          0
L1D WRITEBACK ACCESS:          0  HIT:          0  MISS:          0
L1D PREFETCH  REQUESTED:          0  ISSUED:          0  USEFUL:          0  USELESS:          0
L1D AVERAGE MISS LATENCY: 117.499 cycles
L1I TOTAL     ACCESS:   24346030  HIT:   23723876  MISS:     622154
L1I LOAD      ACCESS:    5980452  HIT:    5590418  MISS:     390034
L1I RFO       ACCESS:          0  HIT:          0  MISS:          0
L1I PREFETCH  ACCESS:   18365578  HIT:   18133458  MISS:     232120
L1I WRITEBACK ACCESS:          0  HIT:          0  MISS:          0
L1I PREFETCH  REQUESTED:   24407231  ISSUED:   24403653  USEFUL:     218865  USELESS:      13290
L1I AVERAGE MISS LATENCY: 12.3147 cycles
L2C TOTAL     ACCESS:    1250082  HIT:     923056  MISS:     327026
L2C LOAD      ACCESS:     429669  HIT:     314454  MISS:     115215
L2C RFO       ACCESS:     195334  HIT:      30434  MISS:     164900
L2C PREFETCH  ACCESS:     384441  HIT:     338834  MISS:      45607
L2C WRITEBACK ACCESS:     240638  HIT:     239334  MISS:       1304
L2C PREFETCH  REQUESTED:          0  ISSUED:          0  USEFUL:      25402  USELESS:      19388
L2C AVERAGE MISS LATENCY: 145.189 cycles
LLC TOTAL     ACCESS:     521806  HIT:     280803  MISS:     241003
LLC LOAD      ACCESS:     115215  HIT:      47489  MISS:      67726
LLC RFO       ACCESS:     164886  HIT:       9622  MISS:     155264
LLC PREFETCH  ACCESS:      45607  HIT:      28344  MISS:      17263
LLC WRITEBACK ACCESS:     196098  HIT:     195348  MISS:        750
LLC PREFETCH  REQUESTED:          0  ISSUED:          0  USEFUL:       8324  USELESS:       6535
LLC AVERAGE MISS LATENCY: 169.982 cycles
CPU 0 L1I FDIP final stats

DRAM Statistics
 CHANNEL 0
 RQ ROW_BUFFER_HIT:      73849  ROW_BUFFER_MISS:     166400
 DBUS_CONGESTED:     202695
 WQ ROW_BUFFER_HIT:      57513  ROW_BUFFER_MISS:     121319  FULL:          0

 AVG_CONGESTED_CYCLE: 6

CPU 0 Branch Prediction Accuracy: 99.066% MPKI: 1.70796 Average ROB Occupancy at Mispredict: 257.007
Branch type MPKI
BRANCH_DIRECT_JUMP: 0.01188
BRANCH_INDIRECT: 0.0037
BRANCH_CONDITIONAL: 1.64694
BRANCH_DIRECT_CALL: 0.01564
BRANCH_INDIRECT_CALL: 0.0274
BRANCH_RETURN: 0.0024

