
VirtualMemory physical capacity: 8589934592 num_ppages: 2097152
VirtualMemory page size: 4096 log2_page_size: 12
VirtualMemory initalizing ppage free list ... done
VirtualMemory shuffling ppage free list ... done

 (TOTAL 523355 bits 511 Kbits) 
*** ChampSim Multicore Out-of-Order Simulator ***

Warmup Instructions: 50000000
Simulation Instructions: 50000000
Number of CPUs: 1
LLC sets: 2048
LLC ways: 16
Off-chip DRAM Size: 4096 MB Channels: 1 Width: 64-bit Data Rate: 3200 MT/s

CPU 0 runs /home/isaachywong/champsim-pt/ipc1_public/server_039.champsimtrace.xz
CPU 0 Tage branch predictor
CPU 0 L1I FDIP
Basic BTB sets: 2048 ways: 4 indirect buffer size: 4096 RAS size: 32
Heartbeat CPU 0 instructions: 10000003 cycles: 2168946 heartbeat IPC: 4.61054 cumulative IPC: 4.61054 (Simulation time: 0 hr 5 min 4 sec) 
Heartbeat CPU 0 instructions: 20000003 cycles: 4337754 heartbeat IPC: 4.61083 cumulative IPC: 4.61068 (Simulation time: 0 hr 10 min 2 sec) 
Heartbeat CPU 0 instructions: 30000004 cycles: 6506892 heartbeat IPC: 4.61013 cumulative IPC: 4.6105 (Simulation time: 0 hr 15 min 0 sec) 
Heartbeat CPU 0 instructions: 40000001 cycles: 8675530 heartbeat IPC: 4.61119 cumulative IPC: 4.61067 (Simulation time: 0 hr 19 min 57 sec) 
Heartbeat CPU 0 instructions: 50000004 cycles: 10844097 heartbeat IPC: 4.61134 cumulative IPC: 4.6108 (Simulation time: 0 hr 24 min 56 sec) 

Warmup complete CPU 0 instructions: 50000004 cycles: 10844097 (Simulation time: 0 hr 24 min 56 sec) 

Heartbeat CPU 0 instructions: 60000001 cycles: 16709157 heartbeat IPC: 1.70501 cumulative IPC: 1.70501 (Simulation time: 0 hr 36 min 36 sec) 
Heartbeat CPU 0 instructions: 70000000 cycles: 22574116 heartbeat IPC: 1.70504 cumulative IPC: 1.70503 (Simulation time: 0 hr 48 min 17 sec) 
Heartbeat CPU 0 instructions: 80000000 cycles: 28439192 heartbeat IPC: 1.70501 cumulative IPC: 1.70502 (Simulation time: 0 hr 59 min 57 sec) 
Heartbeat CPU 0 instructions: 90000004 cycles: 34308323 heartbeat IPC: 1.70383 cumulative IPC: 1.70472 (Simulation time: 1 hr 11 min 36 sec) 
Heartbeat CPU 0 instructions: 100000004 cycles: 40177329 heartbeat IPC: 1.70387 cumulative IPC: 1.70455 (Simulation time: 1 hr 23 min 17 sec) 
Finished CPU 0 instructions: 50000000 cycles: 29333232 cumulative IPC: 1.70455 (Simulation time: 1 hr 23 min 17 sec) 

ChampSim completed all CPUs

Region of Interest Statistics

CPU 0 cumulative IPC: 1.70455 instructions: 50000000 cycles: 29333232
L1D TOTAL     ACCESS:   13602493  HIT:   13551440  MISS:      51053
L1D LOAD      ACCESS:    6317294  HIT:    6274494  MISS:      42800
L1D RFO       ACCESS:    7285199  HIT:    7276946  MISS:       8253
L1D PREFETCH  ACCESS:          0  HIT:          0  MISS:          0
L1D WRITEBACK ACCESS:          0  HIT:          0  MISS:          0
L1D PREFETCH  REQUESTED:          0  ISSUED:          0  USEFUL:          0  USELESS:          0
L1D AVERAGE MISS LATENCY: 11.0034 cycles
L1I TOTAL     ACCESS:   31312818  HIT:   26924613  MISS:    4388205
L1I LOAD      ACCESS:    6580274  HIT:    3954797  MISS:    2625477
L1I RFO       ACCESS:          0  HIT:          0  MISS:          0
L1I PREFETCH  ACCESS:   24732544  HIT:   22969816  MISS:    1762728
L1I WRITEBACK ACCESS:          0  HIT:          0  MISS:          0
L1I PREFETCH  REQUESTED:   31914108  ISSUED:   31914103  USEFUL:    1573034  USELESS:     189690
L1I AVERAGE MISS LATENCY: 10.0736 cycles
L2C TOTAL     ACCESS:    4462339  HIT:    4462331  MISS:          8
L2C LOAD      ACCESS:    2177259  HIT:    2177258  MISS:          1
L2C RFO       ACCESS:       8253  HIT:       8252  MISS:          1
L2C PREFETCH  ACCESS:    2253747  HIT:    2253741  MISS:          6
L2C WRITEBACK ACCESS:      23080  HIT:      23080  MISS:          0
L2C PREFETCH  REQUESTED:          0  ISSUED:          0  USEFUL:          3  USELESS:          0
L2C AVERAGE MISS LATENCY: 185.125 cycles
LLC TOTAL     ACCESS:          8  HIT:          0  MISS:          8
LLC LOAD      ACCESS:          1  HIT:          0  MISS:          1
LLC RFO       ACCESS:          1  HIT:          0  MISS:          1
LLC PREFETCH  ACCESS:          6  HIT:          0  MISS:          6
LLC WRITEBACK ACCESS:          0  HIT:          0  MISS:          0
LLC PREFETCH  REQUESTED:          0  ISSUED:          0  USEFUL:          0  USELESS:          0
LLC AVERAGE MISS LATENCY: 165.125 cycles
CPU 0 L1I FDIP final stats

DRAM Statistics
 CHANNEL 0
 RQ ROW_BUFFER_HIT:          0  ROW_BUFFER_MISS:          8
 DBUS_CONGESTED:          5
 WQ ROW_BUFFER_HIT:          0  ROW_BUFFER_MISS:          0  FULL:          0

 AVG_CONGESTED_CYCLE: 7

CPU 0 Branch Prediction Accuracy: 99.9795% MPKI: 0.03492 Average ROB Occupancy at Mispredict: 350.726
Branch type MPKI
BRANCH_DIRECT_JUMP: 0
BRANCH_INDIRECT: 0
BRANCH_CONDITIONAL: 0.03486
BRANCH_DIRECT_CALL: 2e-05
BRANCH_INDIRECT_CALL: 4e-05
BRANCH_RETURN: 0

