
VirtualMemory physical capacity: 8589934592 num_ppages: 2097152
VirtualMemory page size: 4096 log2_page_size: 12
VirtualMemory initalizing ppage free list ... done
VirtualMemory shuffling ppage free list ... done

 (TOTAL 523355 bits 511 Kbits) 
*** ChampSim Multicore Out-of-Order Simulator ***

Warmup Instructions: 50000000
Simulation Instructions: 50000000
Number of CPUs: 1
LLC sets: 2048
LLC ways: 16
Off-chip DRAM Size: 4096 MB Channels: 1 Width: 64-bit Data Rate: 3200 MT/s

CPU 0 runs /home/isaachywong/champsim-pt/ipc1_public/server_028.champsimtrace.xz
CPU 0 Tage branch predictor
CPU 0 L1I FDIP
Basic BTB sets: 2048 ways: 4 indirect buffer size: 4096 RAS size: 32
Heartbeat CPU 0 instructions: 10000002 cycles: 2176399 heartbeat IPC: 4.59475 cumulative IPC: 4.59475 (Simulation time: 0 hr 4 min 54 sec) 
Heartbeat CPU 0 instructions: 20000001 cycles: 4353622 heartbeat IPC: 4.59301 cumulative IPC: 4.59388 (Simulation time: 0 hr 9 min 44 sec) 
Heartbeat CPU 0 instructions: 30000004 cycles: 6530231 heartbeat IPC: 4.5943 cumulative IPC: 4.59402 (Simulation time: 0 hr 14 min 34 sec) 
Heartbeat CPU 0 instructions: 40000001 cycles: 8707514 heartbeat IPC: 4.59288 cumulative IPC: 4.59373 (Simulation time: 0 hr 19 min 24 sec) 
Heartbeat CPU 0 instructions: 50000003 cycles: 10883803 heartbeat IPC: 4.59498 cumulative IPC: 4.59398 (Simulation time: 0 hr 24 min 13 sec) 

Warmup complete CPU 0 instructions: 50000003 cycles: 10883803 (Simulation time: 0 hr 24 min 13 sec) 

Heartbeat CPU 0 instructions: 60000000 cycles: 17362485 heartbeat IPC: 1.54352 cumulative IPC: 1.54352 (Simulation time: 0 hr 35 min 57 sec) 
Heartbeat CPU 0 instructions: 70000003 cycles: 23848193 heartbeat IPC: 1.54185 cumulative IPC: 1.54269 (Simulation time: 0 hr 47 min 44 sec) 
Heartbeat CPU 0 instructions: 80000000 cycles: 30307454 heartbeat IPC: 1.54816 cumulative IPC: 1.54451 (Simulation time: 0 hr 59 min 27 sec) 
*** Reached end of trace: /home/isaachywong/champsim-pt/ipc1_public/server_028.champsimtrace.xz
Heartbeat CPU 0 instructions: 90000002 cycles: 36790013 heartbeat IPC: 1.5426 cumulative IPC: 1.54403 (Simulation time: 1 hr 11 min 12 sec) 
Heartbeat CPU 0 instructions: 100000002 cycles: 43237531 heartbeat IPC: 1.55098 cumulative IPC: 1.54542 (Simulation time: 1 hr 22 min 58 sec) 
Finished CPU 0 instructions: 50000004 cycles: 32353729 cumulative IPC: 1.54542 (Simulation time: 1 hr 22 min 58 sec) 

ChampSim completed all CPUs

Region of Interest Statistics

CPU 0 cumulative IPC: 1.54542 instructions: 50000004 cycles: 32353729
L1D TOTAL     ACCESS:   12619991  HIT:   11179844  MISS:    1440147
L1D LOAD      ACCESS:    6524233  HIT:    5388461  MISS:    1135772
L1D RFO       ACCESS:    6095758  HIT:    5791383  MISS:     304375
L1D PREFETCH  ACCESS:          0  HIT:          0  MISS:          0
L1D WRITEBACK ACCESS:          0  HIT:          0  MISS:          0
L1D PREFETCH  REQUESTED:          0  ISSUED:          0  USEFUL:          0  USELESS:          0
L1D AVERAGE MISS LATENCY: 16.8272 cycles
L1I TOTAL     ACCESS:   30116965  HIT:   26852653  MISS:    3264312
L1I LOAD      ACCESS:    6100668  HIT:    4181098  MISS:    1919570
L1I RFO       ACCESS:          0  HIT:          0  MISS:          0
L1I PREFETCH  ACCESS:   24016297  HIT:   22671555  MISS:    1344742
L1I WRITEBACK ACCESS:          0  HIT:          0  MISS:          0
L1I PREFETCH  REQUESTED:   31521402  ISSUED:   31520979  USEFUL:    1082699  USELESS:     262029
L1I AVERAGE MISS LATENCY: 11.5541 cycles
L2C TOTAL     ACCESS:    5290774  HIT:    4837257  MISS:     453517
L2C LOAD      ACCESS:    2719791  HIT:    2438675  MISS:     281116
L2C RFO       ACCESS:     304359  HIT:     254795  MISS:      49564
L2C PREFETCH  ACCESS:    1680277  HIT:    1562855  MISS:     117422
L2C WRITEBACK ACCESS:     586347  HIT:     580932  MISS:       5415
L2C PREFETCH  REQUESTED:          0  ISSUED:          0  USEFUL:      57125  USELESS:      60375
L2C AVERAGE MISS LATENCY: 28.8488 cycles
LLC TOTAL     ACCESS:     537088  HIT:     507831  MISS:      29257
LLC LOAD      ACCESS:     281112  HIT:     254184  MISS:      26928
LLC RFO       ACCESS:      49564  HIT:      47597  MISS:       1967
LLC PREFETCH  ACCESS:     117422  HIT:     117149  MISS:        273
LLC WRITEBACK ACCESS:      88990  HIT:      88901  MISS:         89
LLC PREFETCH  REQUESTED:          0  ISSUED:          0  USEFUL:        122  USELESS:        824
LLC AVERAGE MISS LATENCY: 140.868 cycles
CPU 0 L1I FDIP final stats

DRAM Statistics
 CHANNEL 0
 RQ ROW_BUFFER_HIT:       7129  ROW_BUFFER_MISS:      22039
 DBUS_CONGESTED:       5240
 WQ ROW_BUFFER_HIT:        285  ROW_BUFFER_MISS:       2243  FULL:          0

 AVG_CONGESTED_CYCLE: 6

CPU 0 Branch Prediction Accuracy: 99.8427% MPKI: 0.296 Average ROB Occupancy at Mispredict: 300.244
Branch type MPKI
BRANCH_DIRECT_JUMP: 0.00022
BRANCH_INDIRECT: 0
BRANCH_CONDITIONAL: 0.29542
BRANCH_DIRECT_CALL: 0.0003
BRANCH_INDIRECT_CALL: 6e-05
BRANCH_RETURN: 0

