
VirtualMemory physical capacity: 8589934592 num_ppages: 2097152
VirtualMemory page size: 4096 log2_page_size: 12
VirtualMemory initalizing ppage free list ... done
VirtualMemory shuffling ppage free list ... done

 (TOTAL 523355 bits 511 Kbits) 
*** ChampSim Multicore Out-of-Order Simulator ***

Warmup Instructions: 50000000
Simulation Instructions: 50000000
Number of CPUs: 1
LLC sets: 2048
LLC ways: 16
Off-chip DRAM Size: 4096 MB Channels: 1 Width: 64-bit Data Rate: 3200 MT/s

CPU 0 runs /home/isaachywong/champsim-pt/ipc1_public/server_018.champsimtrace.xz
CPU 0 Tage branch predictor
CPU 0 L1I FDIP
Basic BTB sets: 2048 ways: 4 indirect buffer size: 4096 RAS size: 32
Heartbeat CPU 0 instructions: 10000003 cycles: 2479545 heartbeat IPC: 4.033 cumulative IPC: 4.033 (Simulation time: 0 hr 7 min 10 sec) 
Heartbeat CPU 0 instructions: 20000004 cycles: 4959171 heartbeat IPC: 4.03287 cumulative IPC: 4.03293 (Simulation time: 0 hr 14 min 19 sec) 
Heartbeat CPU 0 instructions: 30000001 cycles: 7358372 heartbeat IPC: 4.16805 cumulative IPC: 4.07699 (Simulation time: 0 hr 20 min 3 sec) 
Heartbeat CPU 0 instructions: 40000003 cycles: 9783791 heartbeat IPC: 4.123 cumulative IPC: 4.0884 (Simulation time: 0 hr 26 min 22 sec) 
Heartbeat CPU 0 instructions: 50000003 cycles: 12256761 heartbeat IPC: 4.04372 cumulative IPC: 4.07938 (Simulation time: 0 hr 33 min 29 sec) 

Warmup complete CPU 0 instructions: 50000003 cycles: 12256761 (Simulation time: 0 hr 33 min 29 sec) 

Heartbeat CPU 0 instructions: 60000000 cycles: 35800161 heartbeat IPC: 0.424747 cumulative IPC: 0.424747 (Simulation time: 0 hr 58 min 47 sec) 
Heartbeat CPU 0 instructions: 70000002 cycles: 59534805 heartbeat IPC: 0.421325 cumulative IPC: 0.423029 (Simulation time: 1 hr 24 min 15 sec) 
Heartbeat CPU 0 instructions: 80000003 cycles: 82521470 heartbeat IPC: 0.435035 cumulative IPC: 0.426957 (Simulation time: 1 hr 49 min 8 sec) 
Heartbeat CPU 0 instructions: 90000000 cycles: 106229895 heartbeat IPC: 0.421791 cumulative IPC: 0.425654 (Simulation time: 2 hr 14 min 35 sec) 
Heartbeat CPU 0 instructions: 100000001 cycles: 129841477 heartbeat IPC: 0.423521 cumulative IPC: 0.425225 (Simulation time: 2 hr 40 min 2 sec) 
Finished CPU 0 instructions: 50000003 cycles: 117584717 cumulative IPC: 0.425225 (Simulation time: 2 hr 40 min 2 sec) 

ChampSim completed all CPUs

Region of Interest Statistics

CPU 0 cumulative IPC: 0.425225 instructions: 50000003 cycles: 117584717
L1D TOTAL     ACCESS:   13187008  HIT:   11382939  MISS:    1804069
L1D LOAD      ACCESS:    6765396  HIT:    5923938  MISS:     841458
L1D RFO       ACCESS:    6421612  HIT:    5459001  MISS:     962611
L1D PREFETCH  ACCESS:          0  HIT:          0  MISS:          0
L1D WRITEBACK ACCESS:          0  HIT:          0  MISS:          0
L1D PREFETCH  REQUESTED:          0  ISSUED:          0  USEFUL:          0  USELESS:          0
L1D AVERAGE MISS LATENCY: 234.86 cycles
L1I TOTAL     ACCESS:   27074478  HIT:   24686161  MISS:    2388317
L1I LOAD      ACCESS:    5357412  HIT:    3884197  MISS:    1473215
L1I RFO       ACCESS:          0  HIT:          0  MISS:          0
L1I PREFETCH  ACCESS:   21717066  HIT:   20801964  MISS:     915102
L1I WRITEBACK ACCESS:          0  HIT:          0  MISS:          0
L1I PREFETCH  REQUESTED:   28044223  ISSUED:   28031001  USEFUL:     886307  USELESS:      28795
L1I AVERAGE MISS LATENCY: 11.878 cycles
L2C TOTAL     ACCESS:    5347809  HIT:    3653602  MISS:    1694207
L2C LOAD      ACCESS:    2066895  HIT:    1387798  MISS:     679097
L2C RFO       ACCESS:     962605  HIT:      31594  MISS:     931011
L2C PREFETCH  ACCESS:    1162867  HIT:    1081368  MISS:      81499
L2C WRITEBACK ACCESS:    1155442  HIT:    1152842  MISS:       2600
L2C PREFETCH  REQUESTED:          0  ISSUED:          0  USEFUL:      55338  USELESS:      26150
L2C AVERAGE MISS LATENCY: 243.586 cycles
LLC TOTAL     ACCESS:    2778401  HIT:    1554324  MISS:    1224077
LLC LOAD      ACCESS:     679097  HIT:     251968  MISS:     427129
LLC RFO       ACCESS:     931011  HIT:     148303  MISS:     782708
LLC PREFETCH  ACCESS:      81499  HIT:      68777  MISS:      12722
LLC WRITEBACK ACCESS:    1086794  HIT:    1085276  MISS:       1518
LLC PREFETCH  REQUESTED:          0  ISSUED:          0  USEFUL:       6175  USELESS:       6404
LLC AVERAGE MISS LATENCY: 309.499 cycles
CPU 0 L1I FDIP final stats

DRAM Statistics
 CHANNEL 0
 RQ ROW_BUFFER_HIT:     300505  ROW_BUFFER_MISS:     921821
 DBUS_CONGESTED:    1165847
 WQ ROW_BUFFER_HIT:     308583  ROW_BUFFER_MISS:     549838  FULL:          0

 AVG_CONGESTED_CYCLE: 6

CPU 0 Branch Prediction Accuracy: 99.8132% MPKI: 0.30854 Average ROB Occupancy at Mispredict: 315.382
Branch type MPKI
BRANCH_DIRECT_JUMP: 0.00052
BRANCH_INDIRECT: 2e-05
BRANCH_CONDITIONAL: 0.30676
BRANCH_DIRECT_CALL: 0.0011
BRANCH_INDIRECT_CALL: 0.00012
BRANCH_RETURN: 2e-05

