
VirtualMemory physical capacity: 8589934592 num_ppages: 2097152
VirtualMemory page size: 4096 log2_page_size: 12
VirtualMemory initalizing ppage free list ... done
VirtualMemory shuffling ppage free list ... done

 (TOTAL 523355 bits 511 Kbits) 
*** ChampSim Multicore Out-of-Order Simulator ***

Warmup Instructions: 50000000
Simulation Instructions: 50000000
Number of CPUs: 1
LLC sets: 2048
LLC ways: 16
Off-chip DRAM Size: 4096 MB Channels: 1 Width: 64-bit Data Rate: 3200 MT/s

CPU 0 runs /home/isaachywong/champsim-pt/ipc1_public/server_021.champsimtrace.xz
CPU 0 Tage branch predictor
CPU 0 L1I FDIP
Basic BTB sets: 2048 ways: 4 indirect buffer size: 4096 RAS size: 32
Heartbeat CPU 0 instructions: 10000001 cycles: 2490520 heartbeat IPC: 4.01523 cumulative IPC: 4.01523 (Simulation time: 0 hr 7 min 16 sec) 
Heartbeat CPU 0 instructions: 20000000 cycles: 4974980 heartbeat IPC: 4.02502 cumulative IPC: 4.02012 (Simulation time: 0 hr 14 min 27 sec) 
Heartbeat CPU 0 instructions: 30000003 cycles: 7467809 heartbeat IPC: 4.01151 cumulative IPC: 4.01724 (Simulation time: 0 hr 21 min 36 sec) 
Heartbeat CPU 0 instructions: 40000001 cycles: 9945045 heartbeat IPC: 4.03676 cumulative IPC: 4.0221 (Simulation time: 0 hr 28 min 45 sec) 
Heartbeat CPU 0 instructions: 50000002 cycles: 12433093 heartbeat IPC: 4.01922 cumulative IPC: 4.02153 (Simulation time: 0 hr 35 min 54 sec) 

Warmup complete CPU 0 instructions: 50000002 cycles: 12433093 (Simulation time: 0 hr 35 min 54 sec) 

Heartbeat CPU 0 instructions: 60000002 cycles: 35398079 heartbeat IPC: 0.435446 cumulative IPC: 0.435446 (Simulation time: 1 hr 1 min 27 sec) 
Heartbeat CPU 0 instructions: 70000001 cycles: 58765498 heartbeat IPC: 0.427946 cumulative IPC: 0.431663 (Simulation time: 1 hr 27 min 21 sec) 
Heartbeat CPU 0 instructions: 80000004 cycles: 81740874 heartbeat IPC: 0.435249 cumulative IPC: 0.432852 (Simulation time: 1 hr 52 min 53 sec) 
Heartbeat CPU 0 instructions: 90000002 cycles: 105118540 heartbeat IPC: 0.427759 cumulative IPC: 0.431567 (Simulation time: 2 hr 18 min 46 sec) 
Heartbeat CPU 0 instructions: 100000000 cycles: 128138203 heartbeat IPC: 0.434411 cumulative IPC: 0.432133 (Simulation time: 2 hr 44 min 20 sec) 
Finished CPU 0 instructions: 50000003 cycles: 115705111 cumulative IPC: 0.432133 (Simulation time: 2 hr 44 min 20 sec) 

ChampSim completed all CPUs

Region of Interest Statistics

CPU 0 cumulative IPC: 0.432133 instructions: 50000003 cycles: 115705111
L1D TOTAL     ACCESS:   13276355  HIT:   11462275  MISS:    1814080
L1D LOAD      ACCESS:    6783568  HIT:    5955538  MISS:     828030
L1D RFO       ACCESS:    6492787  HIT:    5506737  MISS:     986050
L1D PREFETCH  ACCESS:          0  HIT:          0  MISS:          0
L1D WRITEBACK ACCESS:          0  HIT:          0  MISS:          0
L1D PREFETCH  REQUESTED:          0  ISSUED:          0  USEFUL:          0  USELESS:          0
L1D AVERAGE MISS LATENCY: 237.286 cycles
L1I TOTAL     ACCESS:   27219723  HIT:   24685710  MISS:    2534013
L1I LOAD      ACCESS:    5466726  HIT:    3888521  MISS:    1578205
L1I RFO       ACCESS:          0  HIT:          0  MISS:          0
L1I PREFETCH  ACCESS:   21752997  HIT:   20797189  MISS:     955808
L1I WRITEBACK ACCESS:          0  HIT:          0  MISS:          0
L1I PREFETCH  REQUESTED:   28054209  ISSUED:   28043850  USEFUL:     914664  USELESS:      41145
L1I AVERAGE MISS LATENCY: 11.8014 cycles
L2C TOTAL     ACCESS:    5515277  HIT:    3808416  MISS:    1706861
L2C LOAD      ACCESS:    2157129  HIT:    1488077  MISS:     669052
L2C RFO       ACCESS:     986049  HIT:      30083  MISS:     955966
L2C PREFETCH  ACCESS:    1204902  HIT:    1126112  MISS:      78790
L2C WRITEBACK ACCESS:    1167197  HIT:    1164144  MISS:       3053
L2C PREFETCH  REQUESTED:          0  ISSUED:          0  USEFUL:      54587  USELESS:      24128
L2C AVERAGE MISS LATENCY: 245.292 cycles
LLC TOTAL     ACCESS:    2805239  HIT:    1591996  MISS:    1213243
LLC LOAD      ACCESS:     669049  HIT:     267432  MISS:     401617
LLC RFO       ACCESS:     955966  HIT:     156496  MISS:     799470
LLC PREFETCH  ACCESS:      78790  HIT:      68346  MISS:      10444
LLC WRITEBACK ACCESS:    1101434  HIT:    1099722  MISS:       1712
LLC PREFETCH  REQUESTED:          0  ISSUED:          0  USEFUL:       5695  USELESS:       4325
LLC AVERAGE MISS LATENCY: 317.003 cycles
CPU 0 L1I FDIP final stats

DRAM Statistics
 CHANNEL 0
 RQ ROW_BUFFER_HIT:     302753  ROW_BUFFER_MISS:     908574
 DBUS_CONGESTED:    1168367
 WQ ROW_BUFFER_HIT:     307532  ROW_BUFFER_MISS:     550563  FULL:          0

 AVG_CONGESTED_CYCLE: 6

CPU 0 Branch Prediction Accuracy: 99.916% MPKI: 0.13774 Average ROB Occupancy at Mispredict: 327.79
Branch type MPKI
BRANCH_DIRECT_JUMP: 0.00018
BRANCH_INDIRECT: 0
BRANCH_CONDITIONAL: 0.13694
BRANCH_DIRECT_CALL: 0.00058
BRANCH_INDIRECT_CALL: 4e-05
BRANCH_RETURN: 0

