
VirtualMemory physical capacity: 8589934592 num_ppages: 2097152
VirtualMemory page size: 4096 log2_page_size: 12
VirtualMemory initalizing ppage free list ... done
VirtualMemory shuffling ppage free list ... done

 (TOTAL 523355 bits 511 Kbits) 
*** ChampSim Multicore Out-of-Order Simulator ***

Warmup Instructions: 50000000
Simulation Instructions: 50000000
Number of CPUs: 1
LLC sets: 2048
LLC ways: 16
Off-chip DRAM Size: 4096 MB Channels: 1 Width: 64-bit Data Rate: 3200 MT/s

CPU 0 runs /home/isaachywong/champsim-pt/ipc1_public/client_001.champsimtrace.xz
CPU 0 Tage branch predictor
CPU 0 L1I FDIP
Basic BTB sets: 2048 ways: 4 indirect buffer size: 4096 RAS size: 32
Heartbeat CPU 0 instructions: 10000003 cycles: 2411630 heartbeat IPC: 4.14657 cumulative IPC: 4.14657 (Simulation time: 0 hr 6 min 51 sec) 
Heartbeat CPU 0 instructions: 20000004 cycles: 5153682 heartbeat IPC: 3.6469 cumulative IPC: 3.88072 (Simulation time: 0 hr 13 min 12 sec) 
Error: cannot find the corresponding timestamp!
Error: cannot find the corresponding timestamp!
Heartbeat CPU 0 instructions: 30000004 cycles: 7484336 heartbeat IPC: 4.29064 cumulative IPC: 4.00837 (Simulation time: 0 hr 19 min 28 sec) 
Error: cannot find the corresponding timestamp!
Error: cannot find the corresponding timestamp!
Error: cannot find the corresponding timestamp!
Error: cannot find the corresponding timestamp!
Error: cannot find the corresponding timestamp!
Error: cannot find the corresponding timestamp!
Heartbeat CPU 0 instructions: 40000002 cycles: 10339134 heartbeat IPC: 3.50287 cumulative IPC: 3.8688 (Simulation time: 0 hr 26 min 54 sec) 
Error: cannot find the corresponding timestamp!
Error: cannot find the corresponding timestamp!
Error: cannot find the corresponding timestamp!
Error: cannot find the corresponding timestamp!
Error: cannot find the corresponding timestamp!
Error: cannot find the corresponding timestamp!
Error: cannot find the corresponding timestamp!
Error: cannot find the corresponding timestamp!
Error: cannot find the corresponding timestamp!
Error: cannot find the corresponding timestamp!
Error: cannot find the corresponding timestamp!
Error: cannot find the corresponding timestamp!
Heartbeat CPU 0 instructions: 50000000 cycles: 12564862 heartbeat IPC: 4.49291 cumulative IPC: 3.97935 (Simulation time: 0 hr 33 min 17 sec) 

Warmup complete CPU 0 instructions: 50000001 cycles: 12564863 (Simulation time: 0 hr 33 min 17 sec) 

Error: cannot find the corresponding timestamp!
Error: cannot find the corresponding timestamp!
Error: cannot find the corresponding timestamp!
Error: cannot find the corresponding timestamp!
Error: cannot find the corresponding timestamp!
Error: cannot find the corresponding timestamp!
Error: cannot find the corresponding timestamp!
Heartbeat CPU 0 instructions: 60000003 cycles: 20266015 heartbeat IPC: 1.29851 cumulative IPC: 1.29851 (Simulation time: 0 hr 37 min 58 sec) 
Error: cannot find the corresponding timestamp!
Error: cannot find the corresponding timestamp!
Heartbeat CPU 0 instructions: 70000003 cycles: 25341868 heartbeat IPC: 1.97011 cumulative IPC: 1.56531 (Simulation time: 0 hr 42 min 44 sec) 
Error: cannot find the corresponding timestamp!
Error: cannot find the corresponding timestamp!
Error: cannot find the corresponding timestamp!
Error: cannot find the corresponding timestamp!
Error: cannot find the corresponding timestamp!
Error: cannot find the corresponding timestamp!
Error: cannot find the corresponding timestamp!
Heartbeat CPU 0 instructions: 80000003 cycles: 33317512 heartbeat IPC: 1.25382 cumulative IPC: 1.4456 (Simulation time: 0 hr 47 min 24 sec) 
Error: cannot find the corresponding timestamp!
Error: cannot find the corresponding timestamp!
Error: cannot find the corresponding timestamp!
Error: cannot find the corresponding timestamp!
Error: cannot find the corresponding timestamp!
Error: cannot find the corresponding timestamp!
Error: cannot find the corresponding timestamp!
Error: cannot find the corresponding timestamp!
Error: cannot find the corresponding timestamp!
Heartbeat CPU 0 instructions: 90000001 cycles: 38275696 heartbeat IPC: 2.01687 cumulative IPC: 1.55576 (Simulation time: 0 hr 52 min 17 sec) 
Error: cannot find the corresponding timestamp!
Error: cannot find the corresponding timestamp!
Error: cannot find the corresponding timestamp!
Error: cannot find the corresponding timestamp!
Error: cannot find the corresponding timestamp!
Error: cannot find the corresponding timestamp!
Error: cannot find the corresponding timestamp!
Error: cannot find the corresponding timestamp!
Error: cannot find the corresponding timestamp!
Error: cannot find the corresponding timestamp!
Error: cannot find the corresponding timestamp!
Error: cannot find the corresponding timestamp!
Error: cannot find the corresponding timestamp!
Error: cannot find the corresponding timestamp!
Error: cannot find the corresponding timestamp!
Error: cannot find the corresponding timestamp!
Error: cannot find the corresponding timestamp!
Error: cannot find the corresponding timestamp!
Error: cannot find the corresponding timestamp!
Error: cannot find the corresponding timestamp!
Error: cannot find the corresponding timestamp!
Error: cannot find the corresponding timestamp!
Error: cannot find the corresponding timestamp!
Error: cannot find the corresponding timestamp!
Error: cannot find the corresponding timestamp!
Error: cannot find the corresponding timestamp!
Heartbeat CPU 0 instructions: 100000003 cycles: 46210285 heartbeat IPC: 1.2603 cumulative IPC: 1.48609 (Simulation time: 0 hr 55 min 47 sec) 
Finished CPU 0 instructions: 50000002 cycles: 33645422 cumulative IPC: 1.48609 (Simulation time: 0 hr 55 min 47 sec) 

ChampSim completed all CPUs

Region of Interest Statistics

CPU 0 cumulative IPC: 1.48609 instructions: 50000002 cycles: 33645422
L1D TOTAL     ACCESS:   11945525  HIT:   11531289  MISS:     414236
L1D LOAD      ACCESS:    7923105  HIT:    7568193  MISS:     354912
L1D RFO       ACCESS:    4022420  HIT:    3963096  MISS:      59324
L1D PREFETCH  ACCESS:          0  HIT:          0  MISS:          0
L1D WRITEBACK ACCESS:          0  HIT:          0  MISS:          0
L1D PREFETCH  REQUESTED:          0  ISSUED:          0  USEFUL:          0  USELESS:          0
L1D AVERAGE MISS LATENCY: 82.6524 cycles
L1I TOTAL     ACCESS:   10152767  HIT:    9876040  MISS:     276727
L1I LOAD      ACCESS:    2093715  HIT:    1987284  MISS:     106431
L1I RFO       ACCESS:          0  HIT:          0  MISS:          0
L1I PREFETCH  ACCESS:    8059052  HIT:    7888756  MISS:     170296
L1I WRITEBACK ACCESS:          0  HIT:          0  MISS:          0
L1I PREFETCH  REQUESTED:   10720982  ISSUED:   10720568  USEFUL:     168211  USELESS:       2130
L1I AVERAGE MISS LATENCY: 11.7046 cycles
L2C TOTAL     ACCESS:     842454  HIT:     590863  MISS:     251591
L2C LOAD      ACCESS:     395319  HIT:     200935  MISS:     194384
L2C RFO       ACCESS:      59322  HIT:      15831  MISS:      43491
L2C PREFETCH  ACCESS:     236283  HIT:     223018  MISS:      13265
L2C WRITEBACK ACCESS:     151530  HIT:     151079  MISS:        451
L2C PREFETCH  REQUESTED:          0  ISSUED:          0  USEFUL:       5249  USELESS:       7399
L2C AVERAGE MISS LATENCY: 128.692 cycles
LLC TOTAL     ACCESS:     355459  HIT:     215025  MISS:     140434
LLC LOAD      ACCESS:     194384  HIT:      95726  MISS:      98658
LLC RFO       ACCESS:      43491  HIT:       9009  MISS:      34482
LLC PREFETCH  ACCESS:      13265  HIT:       6126  MISS:       7139
LLC WRITEBACK ACCESS:     104319  HIT:     104164  MISS:        155
LLC PREFETCH  REQUESTED:          0  ISSUED:          0  USEFUL:       2424  USELESS:       3627
LLC AVERAGE MISS LATENCY: 194.786 cycles
CPU 0 L1I FDIP final stats

DRAM Statistics
 CHANNEL 0
 RQ ROW_BUFFER_HIT:      26596  ROW_BUFFER_MISS:     113675
 DBUS_CONGESTED:      81020
 WQ ROW_BUFFER_HIT:      12411  ROW_BUFFER_MISS:      64904  FULL:          0

 AVG_CONGESTED_CYCLE: 6

CPU 0 Branch Prediction Accuracy: 94.2555% MPKI: 9.95902 Average ROB Occupancy at Mispredict: 230.219
Branch type MPKI
BRANCH_DIRECT_JUMP: 0.00476
BRANCH_INDIRECT: 0.08416
BRANCH_CONDITIONAL: 8.7453
BRANCH_DIRECT_CALL: 0.00632
BRANCH_INDIRECT_CALL: 1.00982
BRANCH_RETURN: 0.10866

