
VirtualMemory physical capacity: 8589934592 num_ppages: 2097152
VirtualMemory page size: 4096 log2_page_size: 12
VirtualMemory initalizing ppage free list ... done
VirtualMemory shuffling ppage free list ... done

 (TOTAL 523355 bits 511 Kbits) 
*** ChampSim Multicore Out-of-Order Simulator ***

Warmup Instructions: 50000000
Simulation Instructions: 50000000
Number of CPUs: 1
LLC sets: 2048
LLC ways: 16
Off-chip DRAM Size: 4096 MB Channels: 1 Width: 64-bit Data Rate: 3200 MT/s

CPU 0 runs /home/isaachywong/champsim-pt/ipc1_public/server_012.champsimtrace.xz
CPU 0 Tage branch predictor
CPU 0 L1I FDIP
Basic BTB sets: 256 ways: 4 indirect buffer size: 4096 RAS size: 32
Heartbeat CPU 0 instructions: 10000000 cycles: 2062255 heartbeat IPC: 4.84906 cumulative IPC: 4.84906 (Simulation time: 0 hr 4 min 14 sec) 
Heartbeat CPU 0 instructions: 20000000 cycles: 4125224 heartbeat IPC: 4.84738 cumulative IPC: 4.84822 (Simulation time: 0 hr 8 min 23 sec) 
Heartbeat CPU 0 instructions: 30000001 cycles: 6190356 heartbeat IPC: 4.84231 cumulative IPC: 4.84625 (Simulation time: 0 hr 12 min 28 sec) 
Heartbeat CPU 0 instructions: 40000002 cycles: 8260640 heartbeat IPC: 4.83026 cumulative IPC: 4.84224 (Simulation time: 0 hr 16 min 36 sec) 
Heartbeat CPU 0 instructions: 50000003 cycles: 10324483 heartbeat IPC: 4.84533 cumulative IPC: 4.84286 (Simulation time: 0 hr 20 min 43 sec) 

Warmup complete CPU 0 instructions: 50000003 cycles: 10324483 (Simulation time: 0 hr 20 min 43 sec) 

Heartbeat CPU 0 instructions: 60000003 cycles: 18424231 heartbeat IPC: 1.23461 cumulative IPC: 1.23461 (Simulation time: 0 hr 25 min 20 sec) 
Heartbeat CPU 0 instructions: 70000001 cycles: 26512777 heartbeat IPC: 1.23632 cumulative IPC: 1.23546 (Simulation time: 0 hr 29 min 57 sec) 
Heartbeat CPU 0 instructions: 80000002 cycles: 34893723 heartbeat IPC: 1.19318 cumulative IPC: 1.22104 (Simulation time: 0 hr 34 min 39 sec) 
Heartbeat CPU 0 instructions: 90000004 cycles: 43217827 heartbeat IPC: 1.20133 cumulative IPC: 1.21605 (Simulation time: 0 hr 39 min 21 sec) 
Heartbeat CPU 0 instructions: 100000002 cycles: 51474092 heartbeat IPC: 1.2112 cumulative IPC: 1.21508 (Simulation time: 0 hr 44 min 2 sec) 
Finished CPU 0 instructions: 50000001 cycles: 41149610 cumulative IPC: 1.21508 (Simulation time: 0 hr 44 min 2 sec) 

ChampSim completed all CPUs

Region of Interest Statistics

CPU 0 cumulative IPC: 1.21508 instructions: 50000001 cycles: 41149610
L1D TOTAL     ACCESS:   11289925  HIT:   10653967  MISS:     635958
L1D LOAD      ACCESS:    6312021  HIT:    5766382  MISS:     545639
L1D RFO       ACCESS:    4977904  HIT:    4887585  MISS:      90319
L1D PREFETCH  ACCESS:          0  HIT:          0  MISS:          0
L1D WRITEBACK ACCESS:          0  HIT:          0  MISS:          0
L1D PREFETCH  REQUESTED:          0  ISSUED:          0  USEFUL:          0  USELESS:          0
L1D AVERAGE MISS LATENCY: 36.2362 cycles
L1I TOTAL     ACCESS:   10015721  HIT:    8713553  MISS:    1302168
L1I LOAD      ACCESS:    5317111  HIT:    4170346  MISS:    1146765
L1I RFO       ACCESS:          0  HIT:          0  MISS:          0
L1I PREFETCH  ACCESS:    4698610  HIT:    4543207  MISS:     155403
L1I WRITEBACK ACCESS:          0  HIT:          0  MISS:          0
L1I PREFETCH  REQUESTED:    6554348  ISSUED:    6554348  USEFUL:     153274  USELESS:       2129
L1I AVERAGE MISS LATENCY: 15.488 cycles
L2C TOTAL     ACCESS:    2192745  HIT:    1269677  MISS:     923068
L2C LOAD      ACCESS:    1420866  HIT:     759862  MISS:     661004
L2C RFO       ACCESS:      90286  HIT:      35905  MISS:      54381
L2C PREFETCH  ACCESS:     426925  HIT:     221544  MISS:     205381
L2C WRITEBACK ACCESS:     254668  HIT:     252366  MISS:       2302
L2C PREFETCH  REQUESTED:          0  ISSUED:          0  USEFUL:      70932  USELESS:     133264
L2C AVERAGE MISS LATENCY: 30.6541 cycles
LLC TOTAL     ACCESS:    1070990  HIT:    1005160  MISS:      65830
LLC LOAD      ACCESS:     660989  HIT:     607352  MISS:      53637
LLC RFO       ACCESS:      54378  HIT:      44185  MISS:      10193
LLC PREFETCH  ACCESS:     205381  HIT:     203448  MISS:       1933
LLC WRITEBACK ACCESS:     150242  HIT:     150175  MISS:         67
LLC PREFETCH  REQUESTED:          0  ISSUED:          0  USEFUL:       1125  USELESS:        602
LLC AVERAGE MISS LATENCY: 150.078 cycles
CPU 0 L1I FDIP final stats

DRAM Statistics
 CHANNEL 0
 RQ ROW_BUFFER_HIT:       7480  ROW_BUFFER_MISS:      58283
 DBUS_CONGESTED:      31571
 WQ ROW_BUFFER_HIT:       9501  ROW_BUFFER_MISS:      42186  FULL:          0

 AVG_CONGESTED_CYCLE: 6

CPU 0 Branch Prediction Accuracy: 93.7652% MPKI: 11.5951 Average ROB Occupancy at Mispredict: 96.9931
Branch type MPKI
BRANCH_DIRECT_JUMP: 0.01316
BRANCH_INDIRECT: 0.29734
BRANCH_CONDITIONAL: 9.657
BRANCH_DIRECT_CALL: 0.02508
BRANCH_INDIRECT_CALL: 0.13318
BRANCH_RETURN: 1.46938

