
VirtualMemory physical capacity: 8589934592 num_ppages: 2097152
VirtualMemory page size: 4096 log2_page_size: 12
VirtualMemory initalizing ppage free list ... done
VirtualMemory shuffling ppage free list ... done

 (TOTAL 523355 bits 511 Kbits) 
*** ChampSim Multicore Out-of-Order Simulator ***

Warmup Instructions: 50000000
Simulation Instructions: 50000000
Number of CPUs: 1
LLC sets: 2048
LLC ways: 16
Off-chip DRAM Size: 4096 MB Channels: 1 Width: 64-bit Data Rate: 3200 MT/s

CPU 0 runs /home/isaachywong/champsim-pt/ipc1_public/server_004.champsimtrace.xz
CPU 0 Tage branch predictor
CPU 0 L1I FDIP
Basic BTB sets: 2048 ways: 4 indirect buffer size: 4096 RAS size: 32
Heartbeat CPU 0 instructions: 10000002 cycles: 2097061 heartbeat IPC: 4.76858 cumulative IPC: 4.76858 (Simulation time: 0 hr 6 min 21 sec) 
Heartbeat CPU 0 instructions: 20000001 cycles: 4289789 heartbeat IPC: 4.56053 cumulative IPC: 4.66223 (Simulation time: 0 hr 12 min 31 sec) 
Heartbeat CPU 0 instructions: 30000000 cycles: 7589321 heartbeat IPC: 3.03073 cumulative IPC: 3.95292 (Simulation time: 0 hr 20 min 57 sec) 
Heartbeat CPU 0 instructions: 40000000 cycles: 10000162 heartbeat IPC: 4.14793 cumulative IPC: 3.99994 (Simulation time: 0 hr 27 min 37 sec) 
Heartbeat CPU 0 instructions: 50000004 cycles: 12097922 heartbeat IPC: 4.76699 cumulative IPC: 4.13294 (Simulation time: 0 hr 33 min 40 sec) 

Warmup complete CPU 0 instructions: 50000004 cycles: 12097922 (Simulation time: 0 hr 33 min 40 sec) 

Heartbeat CPU 0 instructions: 60000004 cycles: 19199909 heartbeat IPC: 1.40806 cumulative IPC: 1.40806 (Simulation time: 0 hr 39 min 46 sec) 
Heartbeat CPU 0 instructions: 70000003 cycles: 25726055 heartbeat IPC: 1.5323 cumulative IPC: 1.46755 (Simulation time: 0 hr 45 min 36 sec) 
Heartbeat CPU 0 instructions: 80000001 cycles: 41976545 heartbeat IPC: 0.615366 cumulative IPC: 1.00406 (Simulation time: 0 hr 53 min 15 sec) 
Heartbeat CPU 0 instructions: 90000001 cycles: 55457971 heartbeat IPC: 0.741761 cumulative IPC: 0.922508 (Simulation time: 0 hr 58 min 54 sec) 
Heartbeat CPU 0 instructions: 100000004 cycles: 62407378 heartbeat IPC: 1.43897 cumulative IPC: 0.993849 (Simulation time: 1 hr 4 min 45 sec) 
Finished CPU 0 instructions: 50000000 cycles: 50309456 cumulative IPC: 0.993849 (Simulation time: 1 hr 4 min 45 sec) 

ChampSim completed all CPUs

Region of Interest Statistics

CPU 0 cumulative IPC: 0.993849 instructions: 50000000 cycles: 50309456
L1D TOTAL     ACCESS:   12951327  HIT:   10960156  MISS:    1991171
L1D LOAD      ACCESS:    8260053  HIT:    6366082  MISS:    1893971
L1D RFO       ACCESS:    4691274  HIT:    4594074  MISS:      97200
L1D PREFETCH  ACCESS:          0  HIT:          0  MISS:          0
L1D WRITEBACK ACCESS:          0  HIT:          0  MISS:          0
L1D PREFETCH  REQUESTED:          0  ISSUED:          0  USEFUL:          0  USELESS:          0
L1D AVERAGE MISS LATENCY: 20.3424 cycles
L1I TOTAL     ACCESS:   14223059  HIT:   13184612  MISS:    1038447
L1I LOAD      ACCESS:    4336048  HIT:    3772355  MISS:     563693
L1I RFO       ACCESS:          0  HIT:          0  MISS:          0
L1I PREFETCH  ACCESS:    9887011  HIT:    9412257  MISS:     474754
L1I WRITEBACK ACCESS:          0  HIT:          0  MISS:          0
L1I PREFETCH  REQUESTED:   14939037  ISSUED:   14939032  USEFUL:     464080  USELESS:      10701
L1I AVERAGE MISS LATENCY: 13.1281 cycles
L2C TOTAL     ACCESS:    3244570  HIT:    2474030  MISS:     770540
L2C LOAD      ACCESS:    2077908  HIT:    1764287  MISS:     313621
L2C RFO       ACCESS:      97193  HIT:      43667  MISS:      53526
L2C PREFETCH  ACCESS:     854485  HIT:     452833  MISS:     401652
L2C WRITEBACK ACCESS:     214984  HIT:     213243  MISS:       1741
L2C PREFETCH  REQUESTED:          0  ISSUED:          0  USEFUL:     122654  USELESS:     278578
L2C AVERAGE MISS LATENCY: 40.3078 cycles
LLC TOTAL     ACCESS:     896389  HIT:     800670  MISS:      95719
LLC LOAD      ACCESS:     313618  HIT:     251484  MISS:      62134
LLC RFO       ACCESS:      53526  HIT:      38419  MISS:      15107
LLC PREFETCH  ACCESS:     401652  HIT:     383264  MISS:      18388
LLC WRITEBACK ACCESS:     127593  HIT:     127503  MISS:         90
LLC PREFETCH  REQUESTED:          0  ISSUED:          0  USEFUL:       8709  USELESS:       9420
LLC AVERAGE MISS LATENCY: 163.828 cycles
CPU 0 L1I FDIP final stats

DRAM Statistics
 CHANNEL 0
 RQ ROW_BUFFER_HIT:      14183  ROW_BUFFER_MISS:      81438
 DBUS_CONGESTED:      41585
 WQ ROW_BUFFER_HIT:      12218  ROW_BUFFER_MISS:      30906  FULL:          0

 AVG_CONGESTED_CYCLE: 6

CPU 0 Branch Prediction Accuracy: 95.628% MPKI: 9.24754 Average ROB Occupancy at Mispredict: 171.877
Branch type MPKI
BRANCH_DIRECT_JUMP: 0.25344
BRANCH_INDIRECT: 0.43368
BRANCH_CONDITIONAL: 6.62376
BRANCH_DIRECT_CALL: 0.53226
BRANCH_INDIRECT_CALL: 0.46084
BRANCH_RETURN: 0.94356

