
VirtualMemory physical capacity: 8589934592 num_ppages: 2097152
VirtualMemory page size: 4096 log2_page_size: 12
VirtualMemory initalizing ppage free list ... done
VirtualMemory shuffling ppage free list ... done

 (TOTAL 523355 bits 511 Kbits) 
*** ChampSim Multicore Out-of-Order Simulator ***

Warmup Instructions: 50000000
Simulation Instructions: 50000000
Number of CPUs: 1
LLC sets: 2048
LLC ways: 16
Off-chip DRAM Size: 4096 MB Channels: 1 Width: 64-bit Data Rate: 3200 MT/s

CPU 0 runs /home/isaachywong/champsim-pt/ipc1_public/spec_gcc_002.champsimtrace.xz
CPU 0 Tage branch predictor
CPU 0 L1I FDIP
Basic BTB sets: 2048 ways: 4 indirect buffer size: 4096 RAS size: 32
Heartbeat CPU 0 instructions: 10000002 cycles: 3327217 heartbeat IPC: 3.00552 cumulative IPC: 3.00552 (Simulation time: 0 hr 11 min 33 sec) 
Heartbeat CPU 0 instructions: 20000001 cycles: 6842832 heartbeat IPC: 2.84445 cumulative IPC: 2.92277 (Simulation time: 0 hr 24 min 31 sec) 
Heartbeat CPU 0 instructions: 30000000 cycles: 10054957 heartbeat IPC: 3.1132 cumulative IPC: 2.9836 (Simulation time: 0 hr 34 min 48 sec) 
Heartbeat CPU 0 instructions: 40000000 cycles: 13547241 heartbeat IPC: 2.86346 cumulative IPC: 2.95263 (Simulation time: 0 hr 47 min 38 sec) 
Heartbeat CPU 0 instructions: 50000003 cycles: 17121676 heartbeat IPC: 2.79765 cumulative IPC: 2.92027 (Simulation time: 1 hr 0 min 44 sec) 

Warmup complete CPU 0 instructions: 50000003 cycles: 17121676 (Simulation time: 1 hr 0 min 44 sec) 

Heartbeat CPU 0 instructions: 60000001 cycles: 58870272 heartbeat IPC: 0.239529 cumulative IPC: 0.239529 (Simulation time: 1 hr 41 min 3 sec) 
Heartbeat CPU 0 instructions: 70000004 cycles: 99014575 heartbeat IPC: 0.249101 cumulative IPC: 0.244221 (Simulation time: 2 hr 19 min 5 sec) 
Heartbeat CPU 0 instructions: 80000002 cycles: 153471730 heartbeat IPC: 0.183631 cumulative IPC: 0.220022 (Simulation time: 3 hr 13 min 22 sec) 
Heartbeat CPU 0 instructions: 90000002 cycles: 203890948 heartbeat IPC: 0.198337 cumulative IPC: 0.214168 (Simulation time: 4 hr 2 min 51 sec) 
Heartbeat CPU 0 instructions: 100000000 cycles: 237931305 heartbeat IPC: 0.293769 cumulative IPC: 0.226439 (Simulation time: 4 hr 34 min 19 sec) 
Finished CPU 0 instructions: 50000001 cycles: 220809637 cumulative IPC: 0.226439 (Simulation time: 4 hr 34 min 19 sec) 

ChampSim completed all CPUs

Region of Interest Statistics

CPU 0 cumulative IPC: 0.226439 instructions: 50000001 cycles: 220809637
L1D TOTAL     ACCESS:   13623942  HIT:    8610441  MISS:    5013501
L1D LOAD      ACCESS:    6105513  HIT:    4693662  MISS:    1411851
L1D RFO       ACCESS:    7518429  HIT:    3916779  MISS:    3601650
L1D PREFETCH  ACCESS:          0  HIT:          0  MISS:          0
L1D WRITEBACK ACCESS:          0  HIT:          0  MISS:          0
L1D PREFETCH  REQUESTED:          0  ISSUED:          0  USEFUL:          0  USELESS:          0
L1D AVERAGE MISS LATENCY: 331.175 cycles
L1I TOTAL     ACCESS:   13361659  HIT:   12805695  MISS:     555964
L1I LOAD      ACCESS:    2449246  HIT:    2091174  MISS:     358072
L1I RFO       ACCESS:          0  HIT:          0  MISS:          0
L1I PREFETCH  ACCESS:   10912413  HIT:   10714521  MISS:     197892
L1I WRITEBACK ACCESS:          0  HIT:          0  MISS:          0
L1I PREFETCH  REQUESTED:   14242515  ISSUED:   14235982  USEFUL:     191477  USELESS:       6439
L1I AVERAGE MISS LATENCY: 24.5563 cycles
L2C TOTAL     ACCESS:    9269760  HIT:    4062026  MISS:    5207734
L2C LOAD      ACCESS:    1500821  HIT:     106536  MISS:    1394285
L2C RFO       ACCESS:    3601635  HIT:       6502  MISS:    3595133
L2C PREFETCH  ACCESS:     466968  HIT:     249120  MISS:     217848
L2C WRITEBACK ACCESS:    3700336  HIT:    3699868  MISS:        468
L2C PREFETCH  REQUESTED:          0  ISSUED:          0  USEFUL:     104038  USELESS:     113856
L2C AVERAGE MISS LATENCY: 315.274 cycles
LLC TOTAL     ACCESS:    8881130  HIT:    5953700  MISS:    2927430
LLC LOAD      ACCESS:    1394284  HIT:     973781  MISS:     420503
LLC RFO       ACCESS:    3595133  HIT:    1175564  MISS:    2419569
LLC PREFETCH  ACCESS:     217848  HIT:     130492  MISS:      87356
LLC WRITEBACK ACCESS:    3673865  HIT:    3673863  MISS:          2
LLC PREFETCH  REQUESTED:          0  ISSUED:          0  USEFUL:      30957  USELESS:      56413
LLC AVERAGE MISS LATENCY: 525.276 cycles
CPU 0 L1I FDIP final stats

DRAM Statistics
 CHANNEL 0
 RQ ROW_BUFFER_HIT:     471539  ROW_BUFFER_MISS:    2453822
 DBUS_CONGESTED:    3955318
 WQ ROW_BUFFER_HIT:     597962  ROW_BUFFER_MISS:    1961548  FULL:        812

 AVG_CONGESTED_CYCLE: 6

CPU 0 Branch Prediction Accuracy: 97.2036% MPKI: 5.7457 Average ROB Occupancy at Mispredict: 160.419
Branch type MPKI
BRANCH_DIRECT_JUMP: 0.01942
BRANCH_INDIRECT: 0.19978
BRANCH_CONDITIONAL: 5.46048
BRANCH_DIRECT_CALL: 0.02092
BRANCH_INDIRECT_CALL: 0.04476
BRANCH_RETURN: 0.00034

