
VirtualMemory physical capacity: 8589934592 num_ppages: 2097152
VirtualMemory page size: 4096 log2_page_size: 12
VirtualMemory initalizing ppage free list ... done
VirtualMemory shuffling ppage free list ... done

 (TOTAL 523355 bits 511 Kbits) 
*** ChampSim Multicore Out-of-Order Simulator ***

Warmup Instructions: 50000000
Simulation Instructions: 50000000
Number of CPUs: 1
LLC sets: 2048
LLC ways: 16
Off-chip DRAM Size: 4096 MB Channels: 1 Width: 64-bit Data Rate: 3200 MT/s

CPU 0 runs /home/isaachywong/champsim-pt/ipc1_public/client_007.champsimtrace.xz
CPU 0 Tage branch predictor
Basic BTB sets: 2048 ways: 4 indirect buffer size: 4096 RAS size: 32
Heartbeat CPU 0 instructions: 10000001 cycles: 2342904 heartbeat IPC: 4.26821 cumulative IPC: 4.26821 (Simulation time: 0 hr 3 min 4 sec) 
Heartbeat CPU 0 instructions: 20000002 cycles: 4624205 heartbeat IPC: 4.38346 cumulative IPC: 4.32507 (Simulation time: 0 hr 5 min 42 sec) 
Heartbeat CPU 0 instructions: 30000003 cycles: 7640669 heartbeat IPC: 3.31514 cumulative IPC: 3.92636 (Simulation time: 0 hr 9 min 12 sec) 
Heartbeat CPU 0 instructions: 40000002 cycles: 10939439 heartbeat IPC: 3.03143 cumulative IPC: 3.65649 (Simulation time: 0 hr 12 min 38 sec) 
Heartbeat CPU 0 instructions: 50000004 cycles: 13326640 heartbeat IPC: 4.18901 cumulative IPC: 3.75188 (Simulation time: 0 hr 15 min 23 sec) 

Warmup complete CPU 0 instructions: 50000004 cycles: 13326640 (Simulation time: 0 hr 15 min 23 sec) 

Heartbeat CPU 0 instructions: 60000000 cycles: 19042555 heartbeat IPC: 1.7495 cumulative IPC: 1.7495 (Simulation time: 0 hr 18 min 57 sec) 
Heartbeat CPU 0 instructions: 70000002 cycles: 27290815 heartbeat IPC: 1.21238 cumulative IPC: 1.43224 (Simulation time: 0 hr 23 min 24 sec) 
Heartbeat CPU 0 instructions: 80000001 cycles: 32810095 heartbeat IPC: 1.81183 cumulative IPC: 1.53977 (Simulation time: 0 hr 26 min 19 sec) 
Heartbeat CPU 0 instructions: 90000002 cycles: 39777006 heartbeat IPC: 1.43536 cumulative IPC: 1.51227 (Simulation time: 0 hr 30 min 23 sec) 
Heartbeat CPU 0 instructions: 100000001 cycles: 47881687 heartbeat IPC: 1.23385 cumulative IPC: 1.44697 (Simulation time: 0 hr 33 min 43 sec) 
Finished CPU 0 instructions: 50000002 cycles: 34555048 cumulative IPC: 1.44697 (Simulation time: 0 hr 33 min 43 sec) 

ChampSim completed all CPUs

Region of Interest Statistics

CPU 0 cumulative IPC: 1.44697 instructions: 50000002 cycles: 34555048
L1D TOTAL     ACCESS:   12640276  HIT:   12074727  MISS:     565549
L1D LOAD      ACCESS:    7731109  HIT:    7241315  MISS:     489794
L1D RFO       ACCESS:    4909167  HIT:    4833412  MISS:      75755
L1D PREFETCH  ACCESS:          0  HIT:          0  MISS:          0
L1D WRITEBACK ACCESS:          0  HIT:          0  MISS:          0
L1D PREFETCH  REQUESTED:          0  ISSUED:          0  USEFUL:          0  USELESS:          0
L1D AVERAGE MISS LATENCY: 52.4371 cycles
L1I TOTAL     ACCESS:    2318551  HIT:    1515638  MISS:     802913
L1I LOAD      ACCESS:    2318551  HIT:    1515638  MISS:     802913
L1I RFO       ACCESS:          0  HIT:          0  MISS:          0
L1I PREFETCH  ACCESS:          0  HIT:          0  MISS:          0
L1I WRITEBACK ACCESS:          0  HIT:          0  MISS:          0
L1I PREFETCH  REQUESTED:          0  ISSUED:          0  USEFUL:          0  USELESS:          0
L1I AVERAGE MISS LATENCY: 12.9283 cycles
L2C TOTAL     ACCESS:    1599623  HIT:    1423920  MISS:     175703
L2C LOAD      ACCESS:    1292485  HIT:    1164694  MISS:     127791
L2C RFO       ACCESS:      75753  HIT:      28099  MISS:      47654
L2C PREFETCH  ACCESS:          0  HIT:          0  MISS:          0
L2C WRITEBACK ACCESS:     231385  HIT:     231127  MISS:        258
L2C PREFETCH  REQUESTED:          0  ISSUED:          0  USEFUL:          0  USELESS:          0
L2C AVERAGE MISS LATENCY: 141.667 cycles
LLC TOTAL     ACCESS:     250155  HIT:     129843  MISS:     120312
LLC LOAD      ACCESS:     127790  HIT:      48900  MISS:      78890
LLC RFO       ACCESS:      47654  HIT:       6319  MISS:      41335
LLC PREFETCH  ACCESS:          0  HIT:          0  MISS:          0
LLC WRITEBACK ACCESS:      74711  HIT:      74624  MISS:         87
LLC PREFETCH  REQUESTED:          0  ISSUED:          0  USEFUL:          0  USELESS:          0
LLC AVERAGE MISS LATENCY: 177.723 cycles

DRAM Statistics
 CHANNEL 0
 RQ ROW_BUFFER_HIT:      22163  ROW_BUFFER_MISS:      98048
 DBUS_CONGESTED:      67551
 WQ ROW_BUFFER_HIT:      11250  ROW_BUFFER_MISS:      47102  FULL:          0

 AVG_CONGESTED_CYCLE: 6

CPU 0 Branch Prediction Accuracy: 95.1766% MPKI: 7.8842 Average ROB Occupancy at Mispredict: 225.523
Branch type MPKI
BRANCH_DIRECT_JUMP: 0.0104
BRANCH_INDIRECT: 0.83126
BRANCH_CONDITIONAL: 5.45072
BRANCH_DIRECT_CALL: 0.02334
BRANCH_INDIRECT_CALL: 1.12364
BRANCH_RETURN: 0.44484

