
VirtualMemory physical capacity: 8589934592 num_ppages: 2097152
VirtualMemory page size: 4096 log2_page_size: 12
VirtualMemory initalizing ppage free list ... done
VirtualMemory shuffling ppage free list ... done

 (TOTAL 523355 bits 511 Kbits) 
*** ChampSim Multicore Out-of-Order Simulator ***

Warmup Instructions: 50000000
Simulation Instructions: 50000000
Number of CPUs: 1
LLC sets: 2048
LLC ways: 16
Off-chip DRAM Size: 4096 MB Channels: 1 Width: 64-bit Data Rate: 3200 MT/s

CPU 0 runs /home/isaachywong/champsim-pt/ipc1_public/server_032.champsimtrace.xz
CPU 0 Tage branch predictor
Basic BTB sets: 2048 ways: 4 indirect buffer size: 4096 RAS size: 32
Heartbeat CPU 0 instructions: 10000001 cycles: 2149105 heartbeat IPC: 4.6531 cumulative IPC: 4.6531 (Simulation time: 0 hr 3 min 13 sec) 
Heartbeat CPU 0 instructions: 20000000 cycles: 4298674 heartbeat IPC: 4.65209 cumulative IPC: 4.6526 (Simulation time: 0 hr 6 min 23 sec) 
Heartbeat CPU 0 instructions: 30000002 cycles: 6448355 heartbeat IPC: 4.65185 cumulative IPC: 4.65235 (Simulation time: 0 hr 9 min 34 sec) 
Heartbeat CPU 0 instructions: 40000002 cycles: 8597973 heartbeat IPC: 4.65199 cumulative IPC: 4.65226 (Simulation time: 0 hr 12 min 44 sec) 
Heartbeat CPU 0 instructions: 50000000 cycles: 10747486 heartbeat IPC: 4.65222 cumulative IPC: 4.65225 (Simulation time: 0 hr 15 min 54 sec) 

Warmup complete CPU 0 instructions: 50000005 cycles: 10747487 (Simulation time: 0 hr 15 min 54 sec) 

Heartbeat CPU 0 instructions: 60000001 cycles: 17915763 heartbeat IPC: 1.39504 cumulative IPC: 1.39504 (Simulation time: 0 hr 20 min 27 sec) 
Heartbeat CPU 0 instructions: 70000004 cycles: 25075800 heartbeat IPC: 1.39664 cumulative IPC: 1.39584 (Simulation time: 0 hr 24 min 59 sec) 
*** Reached end of trace: /home/isaachywong/champsim-pt/ipc1_public/server_032.champsimtrace.xz
Heartbeat CPU 0 instructions: 80000004 cycles: 32216178 heartbeat IPC: 1.40049 cumulative IPC: 1.39738 (Simulation time: 0 hr 29 min 31 sec) 
Heartbeat CPU 0 instructions: 90000002 cycles: 39276989 heartbeat IPC: 1.41627 cumulative IPC: 1.40206 (Simulation time: 0 hr 34 min 2 sec) 
Heartbeat CPU 0 instructions: 100000001 cycles: 46348973 heartbeat IPC: 1.41403 cumulative IPC: 1.40444 (Simulation time: 0 hr 38 min 32 sec) 
Finished CPU 0 instructions: 50000002 cycles: 35601498 cumulative IPC: 1.40444 (Simulation time: 0 hr 38 min 32 sec) 

ChampSim completed all CPUs

Region of Interest Statistics

CPU 0 cumulative IPC: 1.40444 instructions: 50000002 cycles: 35601498
L1D TOTAL     ACCESS:   13557493  HIT:   12422445  MISS:    1135048
L1D LOAD      ACCESS:    6933073  HIT:    6096164  MISS:     836909
L1D RFO       ACCESS:    6624420  HIT:    6326281  MISS:     298139
L1D PREFETCH  ACCESS:          0  HIT:          0  MISS:          0
L1D WRITEBACK ACCESS:          0  HIT:          0  MISS:          0
L1D PREFETCH  REQUESTED:          0  ISSUED:          0  USEFUL:          0  USELESS:          0
L1D AVERAGE MISS LATENCY: 13.2066 cycles
L1I TOTAL     ACCESS:    5947413  HIT:    2784088  MISS:    3163325
L1I LOAD      ACCESS:    5947413  HIT:    2784088  MISS:    3163325
L1I RFO       ACCESS:          0  HIT:          0  MISS:          0
L1I PREFETCH  ACCESS:          0  HIT:          0  MISS:          0
L1I WRITEBACK ACCESS:          0  HIT:          0  MISS:          0
L1I PREFETCH  REQUESTED:          0  ISSUED:          0  USEFUL:          0  USELESS:          0
L1I AVERAGE MISS LATENCY: 12.1762 cycles
L2C TOTAL     ACCESS:    4886825  HIT:    4599572  MISS:     287253
L2C LOAD      ACCESS:    4000123  HIT:    3751723  MISS:     248400
L2C RFO       ACCESS:     298106  HIT:     267468  MISS:      30638
L2C PREFETCH  ACCESS:          0  HIT:          0  MISS:          0
L2C WRITEBACK ACCESS:     588596  HIT:     580381  MISS:       8215
L2C PREFETCH  REQUESTED:          0  ISSUED:          0  USEFUL:          0  USELESS:          0
L2C AVERAGE MISS LATENCY: 20.7185 cycles
LLC TOTAL     ACCESS:     329513  HIT:     326264  MISS:       3249
LLC LOAD      ACCESS:     248400  HIT:     245151  MISS:       3249
LLC RFO       ACCESS:      30638  HIT:      30638  MISS:          0
LLC PREFETCH  ACCESS:          0  HIT:          0  MISS:          0
LLC WRITEBACK ACCESS:      50475  HIT:      50475  MISS:          0
LLC PREFETCH  REQUESTED:          0  ISSUED:          0  USEFUL:          0  USELESS:          0
LLC AVERAGE MISS LATENCY: 114.093 cycles

DRAM Statistics
 CHANNEL 0
 RQ ROW_BUFFER_HIT:       1302  ROW_BUFFER_MISS:       1947
 DBUS_CONGESTED:         46
 WQ ROW_BUFFER_HIT:          0  ROW_BUFFER_MISS:          3  FULL:          0

 AVG_CONGESTED_CYCLE: 6

CPU 0 Branch Prediction Accuracy: 96.1293% MPKI: 7.17918 Average ROB Occupancy at Mispredict: 138.186
Branch type MPKI
BRANCH_DIRECT_JUMP: 0.26334
BRANCH_INDIRECT: 0.36776
BRANCH_CONDITIONAL: 5.31336
BRANCH_DIRECT_CALL: 0.46046
BRANCH_INDIRECT_CALL: 0.47736
BRANCH_RETURN: 0.2969

