
VirtualMemory physical capacity: 8589934592 num_ppages: 2097152
VirtualMemory page size: 4096 log2_page_size: 12
VirtualMemory initalizing ppage free list ... done
VirtualMemory shuffling ppage free list ... done

 (TOTAL 523355 bits 511 Kbits) 
*** ChampSim Multicore Out-of-Order Simulator ***

Warmup Instructions: 50000000
Simulation Instructions: 50000000
Number of CPUs: 1
LLC sets: 2048
LLC ways: 16
Off-chip DRAM Size: 4096 MB Channels: 1 Width: 64-bit Data Rate: 3200 MT/s

CPU 0 runs /home/isaachywong/champsim-pt/ipc1_public/server_017.champsimtrace.xz
CPU 0 Tage branch predictor
Basic BTB sets: 2048 ways: 4 indirect buffer size: 4096 RAS size: 32
Heartbeat CPU 0 instructions: 10000001 cycles: 2473837 heartbeat IPC: 4.0423 cumulative IPC: 4.0423 (Simulation time: 0 hr 5 min 15 sec) 
Heartbeat CPU 0 instructions: 20000003 cycles: 4947738 heartbeat IPC: 4.0422 cumulative IPC: 4.04225 (Simulation time: 0 hr 10 min 28 sec) 
Heartbeat CPU 0 instructions: 30000004 cycles: 7418569 heartbeat IPC: 4.04722 cumulative IPC: 4.04391 (Simulation time: 0 hr 15 min 38 sec) 
Heartbeat CPU 0 instructions: 40000000 cycles: 9893547 heartbeat IPC: 4.04044 cumulative IPC: 4.04304 (Simulation time: 0 hr 20 min 52 sec) 
Heartbeat CPU 0 instructions: 50000002 cycles: 12365149 heartbeat IPC: 4.04596 cumulative IPC: 4.04362 (Simulation time: 0 hr 26 min 1 sec) 

Warmup complete CPU 0 instructions: 50000002 cycles: 12365149 (Simulation time: 0 hr 26 min 1 sec) 

Heartbeat CPU 0 instructions: 60000001 cycles: 36030839 heartbeat IPC: 0.422553 cumulative IPC: 0.422553 (Simulation time: 0 hr 41 min 54 sec) 
Heartbeat CPU 0 instructions: 70000001 cycles: 60038380 heartbeat IPC: 0.416536 cumulative IPC: 0.419523 (Simulation time: 0 hr 57 min 53 sec) 
Heartbeat CPU 0 instructions: 80000000 cycles: 83560226 heartbeat IPC: 0.425137 cumulative IPC: 0.421377 (Simulation time: 1 hr 13 min 1 sec) 
Heartbeat CPU 0 instructions: 90000004 cycles: 109556434 heartbeat IPC: 0.384672 cumulative IPC: 0.41156 (Simulation time: 1 hr 25 min 50 sec) 
Heartbeat CPU 0 instructions: 100000003 cycles: 134285684 heartbeat IPC: 0.404379 cumulative IPC: 0.410103 (Simulation time: 1 hr 39 min 54 sec) 
Finished CPU 0 instructions: 50000001 cycles: 121920535 cumulative IPC: 0.410103 (Simulation time: 1 hr 39 min 54 sec) 

ChampSim completed all CPUs

Region of Interest Statistics

CPU 0 cumulative IPC: 0.410103 instructions: 50000001 cycles: 121920535
L1D TOTAL     ACCESS:   12849273  HIT:   11111237  MISS:    1738036
L1D LOAD      ACCESS:    6784436  HIT:    5914898  MISS:     869538
L1D RFO       ACCESS:    6064837  HIT:    5196339  MISS:     868498
L1D PREFETCH  ACCESS:          0  HIT:          0  MISS:          0
L1D WRITEBACK ACCESS:          0  HIT:          0  MISS:          0
L1D PREFETCH  REQUESTED:          0  ISSUED:          0  USEFUL:          0  USELESS:          0
L1D AVERAGE MISS LATENCY: 232.035 cycles
L1I TOTAL     ACCESS:    4417257  HIT:    2251012  MISS:    2166245
L1I LOAD      ACCESS:    4417257  HIT:    2251012  MISS:    2166245
L1I RFO       ACCESS:          0  HIT:          0  MISS:          0
L1I PREFETCH  ACCESS:          0  HIT:          0  MISS:          0
L1I WRITEBACK ACCESS:          0  HIT:          0  MISS:          0
L1I PREFETCH  REQUESTED:          0  ISSUED:          0  USEFUL:          0  USELESS:          0
L1I AVERAGE MISS LATENCY: 14.1731 cycles
L2C TOTAL     ACCESS:    5014825  HIT:    3376487  MISS:    1638338
L2C LOAD      ACCESS:    3035777  HIT:    2243142  MISS:     792635
L2C RFO       ACCESS:     868495  HIT:      24940  MISS:     843555
L2C PREFETCH  ACCESS:          0  HIT:          0  MISS:          0
L2C WRITEBACK ACCESS:    1110553  HIT:    1108405  MISS:       2148
L2C PREFETCH  REQUESTED:          0  ISSUED:          0  USEFUL:          0  USELESS:          0
L2C AVERAGE MISS LATENCY: 238.545 cycles
LLC TOTAL     ACCESS:    2687986  HIT:    1475269  MISS:    1212717
LLC LOAD      ACCESS:     792630  HIT:     288630  MISS:     504000
LLC RFO       ACCESS:     843554  HIT:     136257  MISS:     707297
LLC PREFETCH  ACCESS:          0  HIT:          0  MISS:          0
LLC WRITEBACK ACCESS:    1051802  HIT:    1050382  MISS:       1420
LLC PREFETCH  REQUESTED:          0  ISSUED:          0  USEFUL:          0  USELESS:          0
LLC AVERAGE MISS LATENCY: 295.281 cycles

DRAM Statistics
 CHANNEL 0
 RQ ROW_BUFFER_HIT:     273203  ROW_BUFFER_MISS:     937877
 DBUS_CONGESTED:    1111344
 WQ ROW_BUFFER_HIT:     324114  ROW_BUFFER_MISS:     519339  FULL:          0

 AVG_CONGESTED_CYCLE: 6

CPU 0 Branch Prediction Accuracy: 96.87% MPKI: 5.26572 Average ROB Occupancy at Mispredict: 243.458
Branch type MPKI
BRANCH_DIRECT_JUMP: 0.0037
BRANCH_INDIRECT: 0.00382
BRANCH_CONDITIONAL: 4.9177
BRANCH_DIRECT_CALL: 0.00834
BRANCH_INDIRECT_CALL: 0.00952
BRANCH_RETURN: 0.32264

