
VirtualMemory physical capacity: 8589934592 num_ppages: 2097152
VirtualMemory page size: 4096 log2_page_size: 12
VirtualMemory initalizing ppage free list ... done
VirtualMemory shuffling ppage free list ... done

 (TOTAL 523355 bits 511 Kbits) 
*** ChampSim Multicore Out-of-Order Simulator ***

Warmup Instructions: 50000000
Simulation Instructions: 50000000
Number of CPUs: 1
LLC sets: 2048
LLC ways: 16
Off-chip DRAM Size: 4096 MB Channels: 1 Width: 64-bit Data Rate: 3200 MT/s

CPU 0 runs /home/isaachywong/champsim-pt/ipc1_public/server_015.champsimtrace.xz
CPU 0 Tage branch predictor
Basic BTB sets: 2048 ways: 4 indirect buffer size: 4096 RAS size: 32
Heartbeat CPU 0 instructions: 10000003 cycles: 2226377 heartbeat IPC: 4.4916 cumulative IPC: 4.4916 (Simulation time: 0 hr 2 min 31 sec) 
Heartbeat CPU 0 instructions: 20000002 cycles: 4494000 heartbeat IPC: 4.4099 cumulative IPC: 4.45038 (Simulation time: 0 hr 5 min 28 sec) 
Heartbeat CPU 0 instructions: 30000001 cycles: 6738474 heartbeat IPC: 4.45539 cumulative IPC: 4.45205 (Simulation time: 0 hr 8 min 7 sec) 
Heartbeat CPU 0 instructions: 40000000 cycles: 8986347 heartbeat IPC: 4.44865 cumulative IPC: 4.4512 (Simulation time: 0 hr 10 min 45 sec) 
Heartbeat CPU 0 instructions: 50000002 cycles: 11234272 heartbeat IPC: 4.44855 cumulative IPC: 4.45067 (Simulation time: 0 hr 13 min 24 sec) 

Warmup complete CPU 0 instructions: 50000002 cycles: 11234272 (Simulation time: 0 hr 13 min 24 sec) 

Heartbeat CPU 0 instructions: 60000003 cycles: 18036226 heartbeat IPC: 1.47017 cumulative IPC: 1.47017 (Simulation time: 0 hr 17 min 20 sec) 
Heartbeat CPU 0 instructions: 70000001 cycles: 24849594 heartbeat IPC: 1.4677 cumulative IPC: 1.46893 (Simulation time: 0 hr 21 min 17 sec) 
Heartbeat CPU 0 instructions: 80000000 cycles: 31662814 heartbeat IPC: 1.46773 cumulative IPC: 1.46853 (Simulation time: 0 hr 25 min 14 sec) 
Heartbeat CPU 0 instructions: 90000000 cycles: 38477994 heartbeat IPC: 1.46731 cumulative IPC: 1.46823 (Simulation time: 0 hr 29 min 11 sec) 
Heartbeat CPU 0 instructions: 100000003 cycles: 45289947 heartbeat IPC: 1.46801 cumulative IPC: 1.46818 (Simulation time: 0 hr 33 min 8 sec) 
Finished CPU 0 instructions: 50000001 cycles: 34055675 cumulative IPC: 1.46818 (Simulation time: 0 hr 33 min 8 sec) 

ChampSim completed all CPUs

Region of Interest Statistics

CPU 0 cumulative IPC: 1.46818 instructions: 50000001 cycles: 34055675
L1D TOTAL     ACCESS:   15214194  HIT:   15213792  MISS:        402
L1D LOAD      ACCESS:    6589293  HIT:    6588949  MISS:        344
L1D RFO       ACCESS:    8624901  HIT:    8624843  MISS:         58
L1D PREFETCH  ACCESS:          0  HIT:          0  MISS:          0
L1D WRITEBACK ACCESS:          0  HIT:          0  MISS:          0
L1D PREFETCH  REQUESTED:          0  ISSUED:          0  USEFUL:          0  USELESS:          0
L1D AVERAGE MISS LATENCY: 40.2985 cycles
L1I TOTAL     ACCESS:    6191426  HIT:    4573699  MISS:    1617727
L1I LOAD      ACCESS:    6191426  HIT:    4573699  MISS:    1617727
L1I RFO       ACCESS:          0  HIT:          0  MISS:          0
L1I PREFETCH  ACCESS:          0  HIT:          0  MISS:          0
L1I WRITEBACK ACCESS:          0  HIT:          0  MISS:          0
L1I PREFETCH  REQUESTED:          0  ISSUED:          0  USEFUL:          0  USELESS:          0
L1I AVERAGE MISS LATENCY: 11.0005 cycles
L2C TOTAL     ACCESS:    1618310  HIT:    1618189  MISS:        121
L2C LOAD      ACCESS:    1618071  HIT:    1617958  MISS:        113
L2C RFO       ACCESS:         58  HIT:         51  MISS:          7
L2C PREFETCH  ACCESS:          0  HIT:          0  MISS:          0
L2C WRITEBACK ACCESS:        181  HIT:        180  MISS:          1
L2C PREFETCH  REQUESTED:          0  ISSUED:          0  USEFUL:          0  USELESS:          0
L2C AVERAGE MISS LATENCY: 103.438 cycles
LLC TOTAL     ACCESS:        166  HIT:        101  MISS:         65
LLC LOAD      ACCESS:        113  HIT:         51  MISS:         62
LLC RFO       ACCESS:          7  HIT:          4  MISS:          3
LLC PREFETCH  ACCESS:          0  HIT:          0  MISS:          0
LLC WRITEBACK ACCESS:         46  HIT:         46  MISS:          0
LLC PREFETCH  REQUESTED:          0  ISSUED:          0  USEFUL:          0  USELESS:          0
LLC AVERAGE MISS LATENCY: 155.631 cycles

DRAM Statistics
 CHANNEL 0
 RQ ROW_BUFFER_HIT:          6  ROW_BUFFER_MISS:         59
 DBUS_CONGESTED:         23
 WQ ROW_BUFFER_HIT:          3  ROW_BUFFER_MISS:         34  FULL:          0

 AVG_CONGESTED_CYCLE: 6

CPU 0 Branch Prediction Accuracy: 97.9013% MPKI: 3.53704 Average ROB Occupancy at Mispredict: 213.727
Branch type MPKI
BRANCH_DIRECT_JUMP: 2e-05
BRANCH_INDIRECT: 0
BRANCH_CONDITIONAL: 3.39092
BRANCH_DIRECT_CALL: 8e-05
BRANCH_INDIRECT_CALL: 0.00028
BRANCH_RETURN: 0.14574

