
VirtualMemory physical capacity: 8589934592 num_ppages: 2097152
VirtualMemory page size: 4096 log2_page_size: 12
VirtualMemory initalizing ppage free list ... done
VirtualMemory shuffling ppage free list ... done

 (TOTAL 523355 bits 511 Kbits) 
*** ChampSim Multicore Out-of-Order Simulator ***

Warmup Instructions: 50000000
Simulation Instructions: 50000000
Number of CPUs: 1
LLC sets: 2048
LLC ways: 16
Off-chip DRAM Size: 4096 MB Channels: 1 Width: 64-bit Data Rate: 3200 MT/s

CPU 0 runs /home/isaachywong/champsim-pt/ipc1_public/server_016.champsimtrace.xz
CPU 0 Tage branch predictor
CPU 0 L1I FDIP
Basic BTB sets: 2048 ways: 4 indirect buffer size: 4096 RAS size: 32
Heartbeat CPU 0 instructions: 10000001 cycles: 2151321 heartbeat IPC: 4.64831 cumulative IPC: 4.64831 (Simulation time: 0 hr 5 min 21 sec) 
Heartbeat CPU 0 instructions: 20000004 cycles: 4303507 heartbeat IPC: 4.64644 cumulative IPC: 4.64737 (Simulation time: 0 hr 10 min 33 sec) 
Heartbeat CPU 0 instructions: 30000002 cycles: 6447552 heartbeat IPC: 4.66408 cumulative IPC: 4.65293 (Simulation time: 0 hr 15 min 45 sec) 
Heartbeat CPU 0 instructions: 40000003 cycles: 8488249 heartbeat IPC: 4.90029 cumulative IPC: 4.7124 (Simulation time: 0 hr 19 min 59 sec) 
Heartbeat CPU 0 instructions: 50000003 cycles: 10488249 heartbeat IPC: 5 cumulative IPC: 4.76724 (Simulation time: 0 hr 23 min 53 sec) 

Warmup complete CPU 0 instructions: 50000003 cycles: 10488249 (Simulation time: 0 hr 23 min 53 sec) 

Heartbeat CPU 0 instructions: 60000004 cycles: 13377391 heartbeat IPC: 3.46124 cumulative IPC: 3.46124 (Simulation time: 0 hr 27 min 16 sec) 
Heartbeat CPU 0 instructions: 70000000 cycles: 20094235 heartbeat IPC: 1.48879 cumulative IPC: 2.08203 (Simulation time: 0 hr 33 min 7 sec) 
Heartbeat CPU 0 instructions: 80000000 cycles: 26926586 heartbeat IPC: 1.46363 cumulative IPC: 1.825 (Simulation time: 0 hr 39 min 6 sec) 
Heartbeat CPU 0 instructions: 90000001 cycles: 33558611 heartbeat IPC: 1.50784 cumulative IPC: 1.73383 (Simulation time: 0 hr 44 min 42 sec) 
Heartbeat CPU 0 instructions: 100000002 cycles: 40328990 heartbeat IPC: 1.47702 cumulative IPC: 1.67556 (Simulation time: 0 hr 50 min 26 sec) 
Finished CPU 0 instructions: 50000000 cycles: 29840743 cumulative IPC: 1.67556 (Simulation time: 0 hr 50 min 26 sec) 

ChampSim completed all CPUs

Region of Interest Statistics

CPU 0 cumulative IPC: 1.67556 instructions: 50000000 cycles: 29840743
L1D TOTAL     ACCESS:   11759392  HIT:   10930976  MISS:     828416
L1D LOAD      ACCESS:    6540397  HIT:    5938413  MISS:     601984
L1D RFO       ACCESS:    5218995  HIT:    4992563  MISS:     226432
L1D PREFETCH  ACCESS:          0  HIT:          0  MISS:          0
L1D WRITEBACK ACCESS:          0  HIT:          0  MISS:          0
L1D PREFETCH  REQUESTED:          0  ISSUED:          0  USEFUL:          0  USELESS:          0
L1D AVERAGE MISS LATENCY: 20.1958 cycles
L1I TOTAL     ACCESS:   14248609  HIT:   12127151  MISS:    2121458
L1I LOAD      ACCESS:    4211054  HIT:    3167321  MISS:    1043733
L1I RFO       ACCESS:          0  HIT:          0  MISS:          0
L1I PREFETCH  ACCESS:   10037555  HIT:    8959830  MISS:    1077725
L1I WRITEBACK ACCESS:          0  HIT:          0  MISS:          0
L1I PREFETCH  REQUESTED:   15085928  ISSUED:   15085928  USEFUL:    1045551  USELESS:      32218
L1I AVERAGE MISS LATENCY: 8.5294 cycles
L2C TOTAL     ACCESS:    3335918  HIT:    2951133  MISS:     384785
L2C LOAD      ACCESS:     987407  HIT:     848430  MISS:     138977
L2C RFO       ACCESS:     226350  HIT:     176407  MISS:      49943
L2C PREFETCH  ACCESS:    1735979  HIT:    1545576  MISS:     190403
L2C WRITEBACK ACCESS:     386182  HIT:     380720  MISS:       5462
L2C PREFETCH  REQUESTED:          0  ISSUED:          0  USEFUL:     100340  USELESS:      89868
L2C AVERAGE MISS LATENCY: 31.634 cycles
LLC TOTAL     ACCESS:     457364  HIT:     432637  MISS:      24727
LLC LOAD      ACCESS:     138976  HIT:     129315  MISS:       9661
LLC RFO       ACCESS:      49915  HIT:      35777  MISS:      14138
LLC PREFETCH  ACCESS:     190403  HIT:     189536  MISS:        867
LLC WRITEBACK ACCESS:      78070  HIT:      78009  MISS:         61
LLC PREFETCH  REQUESTED:          0  ISSUED:          0  USEFUL:        290  USELESS:       1366
LLC AVERAGE MISS LATENCY: 185.473 cycles
CPU 0 L1I FDIP final stats

DRAM Statistics
 CHANNEL 0
 RQ ROW_BUFFER_HIT:       8680  ROW_BUFFER_MISS:      15984
 DBUS_CONGESTED:      16789
 WQ ROW_BUFFER_HIT:       1169  ROW_BUFFER_MISS:      11991  FULL:          0

 AVG_CONGESTED_CYCLE: 6

CPU 0 Branch Prediction Accuracy: 96.3755% MPKI: 6.57918 Average ROB Occupancy at Mispredict: 159.648
Branch type MPKI
BRANCH_DIRECT_JUMP: 0.25992
BRANCH_INDIRECT: 0.34456
BRANCH_CONDITIONAL: 4.80038
BRANCH_DIRECT_CALL: 0.69112
BRANCH_INDIRECT_CALL: 0.36648
BRANCH_RETURN: 0.11672

