
VirtualMemory physical capacity: 8589934592 num_ppages: 2097152
VirtualMemory page size: 4096 log2_page_size: 12
VirtualMemory initalizing ppage free list ... done
VirtualMemory shuffling ppage free list ... done

 (TAGE 463917)  (LOOP 1248)  (SC 58190)  (TOTAL 523355 bits 511 Kbits)  (TOTAL 523355 bits 511 Kbits) 
*** ChampSim Multicore Out-of-Order Simulator ***

Warmup Instructions: 50000000
Simulation Instructions: 50000000
Number of CPUs: 1
LLC sets: 2048
LLC ways: 16
Off-chip DRAM Size: 4096 MB Channels: 1 Width: 64-bit Data Rate: 3200 MT/s

CPU 0 runs /home/isaachywong/champsim-pt/ipc1_public/server_024.champsimtrace.xz
CPU 0 Tage branch predictor
CPU 0 L1I FDIP
Basic BTB sets: 2048 ways: 4 indirect buffer size: 4096 RAS size: 32
Initialize Hawkeye state
Heartbeat CPU 0 instructions: 10000001 cycles: 2161159 heartbeat IPC: 4.62715 cumulative IPC: 4.62715 (Simulation time: 0 hr 5 min 18 sec) 
Heartbeat CPU 0 instructions: 20000004 cycles: 4315013 heartbeat IPC: 4.64284 cumulative IPC: 4.63498 (Simulation time: 0 hr 10 min 23 sec) 
Heartbeat CPU 0 instructions: 30000002 cycles: 6477794 heartbeat IPC: 4.62368 cumulative IPC: 4.63121 (Simulation time: 0 hr 15 min 33 sec) 
Heartbeat CPU 0 instructions: 40000002 cycles: 8641384 heartbeat IPC: 4.62195 cumulative IPC: 4.62889 (Simulation time: 0 hr 20 min 40 sec) 
Heartbeat CPU 0 instructions: 50000002 cycles: 10795380 heartbeat IPC: 4.64253 cumulative IPC: 4.63161 (Simulation time: 0 hr 25 min 44 sec) 

Warmup complete CPU 0 instructions: 50000002 cycles: 10795380 (Simulation time: 0 hr 25 min 44 sec) 

Heartbeat CPU 0 instructions: 60000000 cycles: 17011448 heartbeat IPC: 1.60873 cumulative IPC: 1.60873 (Simulation time: 0 hr 33 min 12 sec) 
Heartbeat CPU 0 instructions: 70000000 cycles: 23285671 heartbeat IPC: 1.59382 cumulative IPC: 1.60124 (Simulation time: 0 hr 40 min 43 sec) 
*** Reached end of trace: /home/isaachywong/champsim-pt/ipc1_public/server_024.champsimtrace.xz
Heartbeat CPU 0 instructions: 80000002 cycles: 29542113 heartbeat IPC: 1.59835 cumulative IPC: 1.60028 (Simulation time: 0 hr 48 min 11 sec) 
Heartbeat CPU 0 instructions: 90000004 cycles: 35918864 heartbeat IPC: 1.5682 cumulative IPC: 1.59214 (Simulation time: 0 hr 55 min 48 sec) 
Heartbeat CPU 0 instructions: 100000004 cycles: 42231421 heartbeat IPC: 1.58414 cumulative IPC: 1.59053 (Simulation time: 1 hr 3 min 21 sec) 
Finished CPU 0 instructions: 50000002 cycles: 31436041 cumulative IPC: 1.59053 (Simulation time: 1 hr 3 min 21 sec) 

ChampSim completed all CPUs

Region of Interest Statistics

CPU 0 cumulative IPC: 1.59053 instructions: 50000002 cycles: 31436041
L1D TOTAL     ACCESS:   12928592  HIT:   11938807  MISS:     989785
L1D LOAD      ACCESS:    6758404  HIT:    6047037  MISS:     711367
L1D RFO       ACCESS:    6170188  HIT:    5891770  MISS:     278418
L1D PREFETCH  ACCESS:          0  HIT:          0  MISS:          0
L1D WRITEBACK ACCESS:          0  HIT:          0  MISS:          0
L1D PREFETCH  REQUESTED:          0  ISSUED:          0  USEFUL:          0  USELESS:          0
L1D AVERAGE MISS LATENCY: 24.565 cycles
L1I TOTAL     ACCESS:   20036613  HIT:   17363755  MISS:    2672858
L1I LOAD      ACCESS:    5548539  HIT:    4167385  MISS:    1381154
L1I RFO       ACCESS:          0  HIT:          0  MISS:          0
L1I PREFETCH  ACCESS:   14488074  HIT:   13196370  MISS:    1291704
L1I WRITEBACK ACCESS:          0  HIT:          0  MISS:          0
L1I PREFETCH  REQUESTED:   20635997  ISSUED:   20635826  USEFUL:    1181482  USELESS:     110225
L1I AVERAGE MISS LATENCY: 9.56459 cycles
L2C TOTAL     ACCESS:    4129166  HIT:    3633724  MISS:     495442
L2C LOAD      ACCESS:    1425794  HIT:    1226593  MISS:     199201
L2C RFO       ACCESS:     278300  HIT:     199467  MISS:      78833
L2C PREFETCH  ACCESS:    1958206  HIT:    1749873  MISS:     208333
L2C WRITEBACK ACCESS:     466866  HIT:     457791  MISS:       9075
L2C PREFETCH  REQUESTED:          0  ISSUED:          0  USEFUL:     117488  USELESS:      90678
L2C AVERAGE MISS LATENCY: 38.4278 cycles
LLC TOTAL     ACCESS:     601078  HIT:     563024  MISS:      38054
LLC LOAD      ACCESS:     199201  HIT:     185576  MISS:      13625
LLC RFO       ACCESS:      78815  HIT:      56028  MISS:      22787
LLC PREFETCH  ACCESS:     208333  HIT:     206845  MISS:       1488
LLC WRITEBACK ACCESS:     114729  HIT:     114575  MISS:        154
LLC PREFETCH  REQUESTED:          0  ISSUED:          0  USEFUL:        608  USELESS:        872
LLC AVERAGE MISS LATENCY: 244.69 cycles
CPU 0 L1I FDIP final stats

DRAM Statistics
 CHANNEL 0
 RQ ROW_BUFFER_HIT:      12239  ROW_BUFFER_MISS:      25660
 DBUS_CONGESTED:      30941
 WQ ROW_BUFFER_HIT:       2139  ROW_BUFFER_MISS:      21770  FULL:          0

 AVG_CONGESTED_CYCLE: 6

CPU 0 Branch Prediction Accuracy: 98.0043% MPKI: 3.65066 Average ROB Occupancy at Mispredict: 216.404
Branch type MPKI
BRANCH_DIRECT_JUMP: 0.37428
BRANCH_INDIRECT: 0.4314
BRANCH_CONDITIONAL: 1.43928
BRANCH_DIRECT_CALL: 0.83196
BRANCH_INDIRECT_CALL: 0.44476
BRANCH_RETURN: 0.12898

