
VirtualMemory physical capacity: 8589934592 num_ppages: 2097152
VirtualMemory page size: 4096 log2_page_size: 12
VirtualMemory initalizing ppage free list ... done
VirtualMemory shuffling ppage free list ... done

 (TAGE 463917)  (LOOP 1248)  (SC 58190)  (TOTAL 523355 bits 511 Kbits)  (TOTAL 523355 bits 511 Kbits) 
*** ChampSim Multicore Out-of-Order Simulator ***

Warmup Instructions: 50000000
Simulation Instructions: 50000000
Number of CPUs: 1
LLC sets: 2048
LLC ways: 16
Off-chip DRAM Size: 4096 MB Channels: 1 Width: 64-bit Data Rate: 3200 MT/s

CPU 0 runs /home/isaachywong/champsim-pt/ipc1_public/server_034.champsimtrace.xz
CPU 0 Tage branch predictor
CPU 0 L1I FDIP
Basic BTB sets: 2048 ways: 4 indirect buffer size: 4096 RAS size: 32
Initialize Hawkeye state
Heartbeat CPU 0 instructions: 10000004 cycles: 2166571 heartbeat IPC: 4.61559 cumulative IPC: 4.61559 (Simulation time: 0 hr 4 min 25 sec) 
Heartbeat CPU 0 instructions: 20000002 cycles: 4329806 heartbeat IPC: 4.62271 cumulative IPC: 4.61914 (Simulation time: 0 hr 8 min 46 sec) 
Heartbeat CPU 0 instructions: 30000003 cycles: 6493780 heartbeat IPC: 4.62113 cumulative IPC: 4.61981 (Simulation time: 0 hr 13 min 9 sec) 
Heartbeat CPU 0 instructions: 40000002 cycles: 8658571 heartbeat IPC: 4.61938 cumulative IPC: 4.6197 (Simulation time: 0 hr 17 min 32 sec) 
Heartbeat CPU 0 instructions: 50000002 cycles: 10825212 heartbeat IPC: 4.61544 cumulative IPC: 4.61885 (Simulation time: 0 hr 21 min 52 sec) 

Warmup complete CPU 0 instructions: 50000002 cycles: 10825212 (Simulation time: 0 hr 21 min 52 sec) 

Heartbeat CPU 0 instructions: 60000002 cycles: 16240193 heartbeat IPC: 1.84673 cumulative IPC: 1.84673 (Simulation time: 0 hr 31 min 17 sec) 
Heartbeat CPU 0 instructions: 70000004 cycles: 21862947 heartbeat IPC: 1.77849 cumulative IPC: 1.81197 (Simulation time: 0 hr 40 min 55 sec) 
Heartbeat CPU 0 instructions: 80000002 cycles: 27281330 heartbeat IPC: 1.84557 cumulative IPC: 1.82303 (Simulation time: 0 hr 50 min 21 sec) 
Heartbeat CPU 0 instructions: 90000002 cycles: 32700853 heartbeat IPC: 1.84518 cumulative IPC: 1.82852 (Simulation time: 0 hr 59 min 47 sec) 
Heartbeat CPU 0 instructions: 100000000 cycles: 38131607 heartbeat IPC: 1.84136 cumulative IPC: 1.83107 (Simulation time: 1 hr 9 min 15 sec) 
Finished CPU 0 instructions: 50000002 cycles: 27306396 cumulative IPC: 1.83107 (Simulation time: 1 hr 9 min 15 sec) 

ChampSim completed all CPUs

Region of Interest Statistics

CPU 0 cumulative IPC: 1.83107 instructions: 50000002 cycles: 27306396
L1D TOTAL     ACCESS:   12162185  HIT:   11556411  MISS:     605774
L1D LOAD      ACCESS:    5902770  HIT:    5380009  MISS:     522761
L1D RFO       ACCESS:    6259415  HIT:    6176402  MISS:      83013
L1D PREFETCH  ACCESS:          0  HIT:          0  MISS:          0
L1D WRITEBACK ACCESS:          0  HIT:          0  MISS:          0
L1D PREFETCH  REQUESTED:          0  ISSUED:          0  USEFUL:          0  USELESS:          0
L1D AVERAGE MISS LATENCY: 13.212 cycles
L1I TOTAL     ACCESS:   27699220  HIT:   24196230  MISS:    3502990
L1I LOAD      ACCESS:    6791685  HIT:    4564832  MISS:    2226853
L1I RFO       ACCESS:          0  HIT:          0  MISS:          0
L1I PREFETCH  ACCESS:   20907535  HIT:   19631398  MISS:    1276137
L1I WRITEBACK ACCESS:          0  HIT:          0  MISS:          0
L1I PREFETCH  REQUESTED:   27935288  ISSUED:   27935087  USEFUL:    1160708  USELESS:     115445
L1I AVERAGE MISS LATENCY: 10.0205 cycles
L2C TOTAL     ACCESS:    4337451  HIT:    4280888  MISS:      56563
L2C LOAD      ACCESS:    2268324  HIT:    2231171  MISS:      37153
L2C RFO       ACCESS:      82923  HIT:      73290  MISS:       9633
L2C PREFETCH  ACCESS:    1757383  HIT:    1749102  MISS:       8281
L2C WRITEBACK ACCESS:     228821  HIT:     227325  MISS:       1496
L2C PREFETCH  REQUESTED:          0  ISSUED:          0  USEFUL:       4788  USELESS:       3427
L2C AVERAGE MISS LATENCY: 27.8756 cycles
LLC TOTAL     ACCESS:      81977  HIT:      77176  MISS:       4801
LLC LOAD      ACCESS:      37151  HIT:      34256  MISS:       2895
LLC RFO       ACCESS:       9633  HIT:       7865  MISS:       1768
LLC PREFETCH  ACCESS:       8281  HIT:       8148  MISS:        133
LLC WRITEBACK ACCESS:      26912  HIT:      26907  MISS:          5
LLC PREFETCH  REQUESTED:          0  ISSUED:          0  USEFUL:        130  USELESS:        181
LLC AVERAGE MISS LATENCY: 99.0252 cycles
CPU 0 L1I FDIP final stats

DRAM Statistics
 CHANNEL 0
 RQ ROW_BUFFER_HIT:       2649  ROW_BUFFER_MISS:       2147
 DBUS_CONGESTED:       1272
 WQ ROW_BUFFER_HIT:         76  ROW_BUFFER_MISS:        359  FULL:          0

 AVG_CONGESTED_CYCLE: 5

CPU 0 Branch Prediction Accuracy: 99.2402% MPKI: 1.4861 Average ROB Occupancy at Mispredict: 182.998
Branch type MPKI
BRANCH_DIRECT_JUMP: 0.02856
BRANCH_INDIRECT: 0.44418
BRANCH_CONDITIONAL: 0.13408
BRANCH_DIRECT_CALL: 0.02992
BRANCH_INDIRECT_CALL: 0.23302
BRANCH_RETURN: 0.61634

