
VirtualMemory physical capacity: 8589934592 num_ppages: 2097152
VirtualMemory page size: 4096 log2_page_size: 12
VirtualMemory initalizing ppage free list ... done
VirtualMemory shuffling ppage free list ... done

 (TAGE 463917)  (LOOP 1248)  (SC 58190)  (TOTAL 523355 bits 511 Kbits)  (TOTAL 523355 bits 511 Kbits) 
*** ChampSim Multicore Out-of-Order Simulator ***

Warmup Instructions: 50000000
Simulation Instructions: 50000000
Number of CPUs: 1
LLC sets: 2048
LLC ways: 16
Off-chip DRAM Size: 4096 MB Channels: 1 Width: 64-bit Data Rate: 3200 MT/s

CPU 0 runs /home/isaachywong/champsim-pt/ipc1_public/server_004.champsimtrace.xz
CPU 0 Tage branch predictor
CPU 0 L1I FDIP
Basic BTB sets: 2048 ways: 4 indirect buffer size: 4096 RAS size: 32
Initialize Hawkeye state
Heartbeat CPU 0 instructions: 10000002 cycles: 2104745 heartbeat IPC: 4.75117 cumulative IPC: 4.75117 (Simulation time: 0 hr 6 min 12 sec) 
Heartbeat CPU 0 instructions: 20000001 cycles: 4305028 heartbeat IPC: 4.54487 cumulative IPC: 4.64573 (Simulation time: 0 hr 12 min 9 sec) 
Heartbeat CPU 0 instructions: 30000000 cycles: 7607928 heartbeat IPC: 3.02764 cumulative IPC: 3.94325 (Simulation time: 0 hr 20 min 16 sec) 
Heartbeat CPU 0 instructions: 40000000 cycles: 10025162 heartbeat IPC: 4.13696 cumulative IPC: 3.98996 (Simulation time: 0 hr 26 min 45 sec) 
Heartbeat CPU 0 instructions: 50000000 cycles: 12130714 heartbeat IPC: 4.74935 cumulative IPC: 4.12177 (Simulation time: 0 hr 32 min 38 sec) 

Warmup complete CPU 0 instructions: 50000005 cycles: 12130715 (Simulation time: 0 hr 32 min 38 sec) 

Heartbeat CPU 0 instructions: 60000004 cycles: 18937468 heartbeat IPC: 1.46913 cumulative IPC: 1.46913 (Simulation time: 0 hr 39 min 55 sec) 
Heartbeat CPU 0 instructions: 70000003 cycles: 25126236 heartbeat IPC: 1.61583 cumulative IPC: 1.53899 (Simulation time: 0 hr 46 min 52 sec) 
Heartbeat CPU 0 instructions: 80000001 cycles: 41224047 heartbeat IPC: 0.621202 cumulative IPC: 1.03116 (Simulation time: 1 hr 6 min 26 sec) 
Heartbeat CPU 0 instructions: 90000001 cycles: 54660013 heartbeat IPC: 0.744271 cumulative IPC: 0.940528 (Simulation time: 1 hr 18 min 13 sec) 
Heartbeat CPU 0 instructions: 100000004 cycles: 61340265 heartbeat IPC: 1.49695 cumulative IPC: 1.01606 (Simulation time: 1 hr 25 min 2 sec) 
Finished CPU 0 instructions: 50000004 cycles: 49209551 cumulative IPC: 1.01606 (Simulation time: 1 hr 25 min 2 sec) 

ChampSim completed all CPUs

Region of Interest Statistics

CPU 0 cumulative IPC: 1.01606 instructions: 50000004 cycles: 49209551
L1D TOTAL     ACCESS:   12818103  HIT:   10813937  MISS:    2004166
L1D LOAD      ACCESS:    8130038  HIT:    6222709  MISS:    1907329
L1D RFO       ACCESS:    4688065  HIT:    4591228  MISS:      96837
L1D PREFETCH  ACCESS:          0  HIT:          0  MISS:          0
L1D WRITEBACK ACCESS:          0  HIT:          0  MISS:          0
L1D PREFETCH  REQUESTED:          0  ISSUED:          0  USEFUL:          0  USELESS:          0
L1D AVERAGE MISS LATENCY: 20.385 cycles
L1I TOTAL     ACCESS:   26901751  HIT:   25828558  MISS:    1073193
L1I LOAD      ACCESS:    5317197  HIT:    4771796  MISS:     545401
L1I RFO       ACCESS:          0  HIT:          0  MISS:          0
L1I PREFETCH  ACCESS:   21584554  HIT:   21056762  MISS:     527792
L1I WRITEBACK ACCESS:          0  HIT:          0  MISS:          0
L1I PREFETCH  REQUESTED:   29800157  ISSUED:   29799521  USEFUL:     496124  USELESS:      31665
L1I AVERAGE MISS LATENCY: 14.6884 cycles
L2C TOTAL     ACCESS:    3292285  HIT:    2506222  MISS:     786063
L2C LOAD      ACCESS:    2121063  HIT:    1798968  MISS:     322095
L2C RFO       ACCESS:      96832  HIT:      42985  MISS:      53847
L2C PREFETCH  ACCESS:     859447  HIT:     451286  MISS:     408161
L2C WRITEBACK ACCESS:     214943  HIT:     212983  MISS:       1960
L2C PREFETCH  REQUESTED:          0  ISSUED:          0  USEFUL:     127591  USELESS:     280067
L2C AVERAGE MISS LATENCY: 40.501 cycles
LLC TOTAL     ACCESS:     913438  HIT:     815264  MISS:      98174
LLC LOAD      ACCESS:     322090  HIT:     257926  MISS:      64164
LLC RFO       ACCESS:      53846  HIT:      38809  MISS:      15037
LLC PREFETCH  ACCESS:     408161  HIT:     389278  MISS:      18883
LLC WRITEBACK ACCESS:     129341  HIT:     129251  MISS:         90
LLC PREFETCH  REQUESTED:          0  ISSUED:          0  USEFUL:       9344  USELESS:       9328
LLC AVERAGE MISS LATENCY: 164.53 cycles
CPU 0 L1I FDIP final stats

DRAM Statistics
 CHANNEL 0
 RQ ROW_BUFFER_HIT:      13762  ROW_BUFFER_MISS:      84318
 DBUS_CONGESTED:      42049
 WQ ROW_BUFFER_HIT:      12828  ROW_BUFFER_MISS:      30479  FULL:          0

 AVG_CONGESTED_CYCLE: 6

CPU 0 Branch Prediction Accuracy: 97.345% MPKI: 5.61574 Average ROB Occupancy at Mispredict: 160.856
Branch type MPKI
BRANCH_DIRECT_JUMP: 0.3817
BRANCH_INDIRECT: 0.43368
BRANCH_CONDITIONAL: 2.74326
BRANCH_DIRECT_CALL: 0.6527
BRANCH_INDIRECT_CALL: 0.46084
BRANCH_RETURN: 0.94356

