
VirtualMemory physical capacity: 8589934592 num_ppages: 2097152
VirtualMemory page size: 4096 log2_page_size: 12
VirtualMemory initalizing ppage free list ... done
VirtualMemory shuffling ppage free list ... done

 (TAGE 463917)  (LOOP 1248)  (SC 58190)  (TOTAL 523355 bits 511 Kbits)  (TOTAL 523355 bits 511 Kbits) 
*** ChampSim Multicore Out-of-Order Simulator ***

Warmup Instructions: 50000000
Simulation Instructions: 50000000
Number of CPUs: 1
LLC sets: 2048
LLC ways: 16
Off-chip DRAM Size: 4096 MB Channels: 1 Width: 64-bit Data Rate: 3200 MT/s

CPU 0 runs /home/isaachywong/champsim-pt/ipc1_public/server_024.champsimtrace.xz
CPU 0 Tage branch predictor
CPU 0 L1I FDIP
Basic BTB sets: 2048 ways: 4 indirect buffer size: 4096 RAS size: 32
Heartbeat CPU 0 instructions: 10000001 cycles: 2165726 heartbeat IPC: 4.61739 cumulative IPC: 4.61739 (Simulation time: 0 hr 5 min 11 sec) 
Heartbeat CPU 0 instructions: 20000004 cycles: 4324025 heartbeat IPC: 4.63328 cumulative IPC: 4.62532 (Simulation time: 0 hr 10 min 9 sec) 
Heartbeat CPU 0 instructions: 30000002 cycles: 6491268 heartbeat IPC: 4.61416 cumulative IPC: 4.62159 (Simulation time: 0 hr 15 min 12 sec) 
Heartbeat CPU 0 instructions: 40000001 cycles: 8659369 heartbeat IPC: 4.61233 cumulative IPC: 4.61927 (Simulation time: 0 hr 20 min 12 sec) 
Heartbeat CPU 0 instructions: 50000002 cycles: 10817814 heartbeat IPC: 4.63297 cumulative IPC: 4.62201 (Simulation time: 0 hr 25 min 8 sec) 

Warmup complete CPU 0 instructions: 50000002 cycles: 10817814 (Simulation time: 0 hr 25 min 8 sec) 

Heartbeat CPU 0 instructions: 60000000 cycles: 16909468 heartbeat IPC: 1.64159 cumulative IPC: 1.64159 (Simulation time: 0 hr 33 min 40 sec) 
Heartbeat CPU 0 instructions: 70000000 cycles: 23093186 heartbeat IPC: 1.61715 cumulative IPC: 1.62928 (Simulation time: 0 hr 42 min 12 sec) 
*** Reached end of trace: /home/isaachywong/champsim-pt/ipc1_public/server_024.champsimtrace.xz
Heartbeat CPU 0 instructions: 80000002 cycles: 29241188 heartbeat IPC: 1.62655 cumulative IPC: 1.62837 (Simulation time: 0 hr 50 min 42 sec) 
Heartbeat CPU 0 instructions: 90000004 cycles: 35519904 heartbeat IPC: 1.59268 cumulative IPC: 1.6193 (Simulation time: 0 hr 59 min 21 sec) 
Heartbeat CPU 0 instructions: 100000004 cycles: 41729358 heartbeat IPC: 1.61045 cumulative IPC: 1.61752 (Simulation time: 1 hr 7 min 57 sec) 
Finished CPU 0 instructions: 50000002 cycles: 30911544 cumulative IPC: 1.61752 (Simulation time: 1 hr 7 min 57 sec) 

ChampSim completed all CPUs

Region of Interest Statistics

CPU 0 cumulative IPC: 1.61752 instructions: 50000002 cycles: 30911544
L1D TOTAL     ACCESS:   12869414  HIT:   11879605  MISS:     989809
L1D LOAD      ACCESS:    6700212  HIT:    5988811  MISS:     711401
L1D RFO       ACCESS:    6169202  HIT:    5890794  MISS:     278408
L1D PREFETCH  ACCESS:          0  HIT:          0  MISS:          0
L1D WRITEBACK ACCESS:          0  HIT:          0  MISS:          0
L1D PREFETCH  REQUESTED:          0  ISSUED:          0  USEFUL:          0  USELESS:          0
L1D AVERAGE MISS LATENCY: 24.6981 cycles
L1I TOTAL     ACCESS:   22113893  HIT:   19405154  MISS:    2708739
L1I LOAD      ACCESS:    5597369  HIT:    4107542  MISS:    1489827
L1I RFO       ACCESS:          0  HIT:          0  MISS:          0
L1I PREFETCH  ACCESS:   16516524  HIT:   15297612  MISS:    1218912
L1I WRITEBACK ACCESS:          0  HIT:          0  MISS:          0
L1I PREFETCH  REQUESTED:   23024849  ISSUED:   23024647  USEFUL:    1080363  USELESS:     138545
L1I AVERAGE MISS LATENCY: 10.0835 cycles
L2C TOTAL     ACCESS:    4165202  HIT:    3652231  MISS:     512971
L2C LOAD      ACCESS:    1610037  HIT:    1382856  MISS:     227181
L2C RFO       ACCESS:     278290  HIT:     197274  MISS:      81016
L2C PREFETCH  ACCESS:    1809983  HIT:    1614802  MISS:     195181
L2C WRITEBACK ACCESS:     466892  HIT:     457299  MISS:       9593
L2C PREFETCH  REQUESTED:          0  ISSUED:          0  USEFUL:     107558  USELESS:      87340
L2C AVERAGE MISS LATENCY: 37.6602 cycles
LLC TOTAL     ACCESS:     623431  HIT:     585804  MISS:      37627
LLC LOAD      ACCESS:     227180  HIT:     213821  MISS:      13359
LLC RFO       ACCESS:      80971  HIT:      58176  MISS:      22795
LLC PREFETCH  ACCESS:     195181  HIT:     193860  MISS:       1321
LLC WRITEBACK ACCESS:     120099  HIT:     119947  MISS:        152
LLC PREFETCH  REQUESTED:          0  ISSUED:          0  USEFUL:        571  USELESS:        708
LLC AVERAGE MISS LATENCY: 245.876 cycles
CPU 0 L1I FDIP final stats

DRAM Statistics
 CHANNEL 0
 RQ ROW_BUFFER_HIT:      12136  ROW_BUFFER_MISS:      25336
 DBUS_CONGESTED:      31221
 WQ ROW_BUFFER_HIT:       2106  ROW_BUFFER_MISS:      22049  FULL:          0

 AVG_CONGESTED_CYCLE: 6

CPU 0 Branch Prediction Accuracy: 98.7882% MPKI: 2.21666 Average ROB Occupancy at Mispredict: 242.169
Branch type MPKI
BRANCH_DIRECT_JUMP: 0.15794
BRANCH_INDIRECT: 0.4314
BRANCH_CONDITIONAL: 0.7146
BRANCH_DIRECT_CALL: 0.33898
BRANCH_INDIRECT_CALL: 0.44476
BRANCH_RETURN: 0.12898

