
VirtualMemory physical capacity: 8589934592 num_ppages: 2097152
VirtualMemory page size: 4096 log2_page_size: 12
VirtualMemory initalizing ppage free list ... done
VirtualMemory shuffling ppage free list ... done

 (TAGE 463917)  (LOOP 1248)  (SC 58190)  (TOTAL 523355 bits 511 Kbits)  (TOTAL 523355 bits 511 Kbits) 
*** ChampSim Multicore Out-of-Order Simulator ***

Warmup Instructions: 50000000
Simulation Instructions: 50000000
Number of CPUs: 1
LLC sets: 2048
LLC ways: 16
Off-chip DRAM Size: 4096 MB Channels: 1 Width: 64-bit Data Rate: 3200 MT/s

CPU 0 runs /home/isaachywong/champsim-pt/ipc1_public/server_025.champsimtrace.xz
CPU 0 Tage branch predictor
CPU 0 L1I FDIP
Basic BTB sets: 2048 ways: 4 indirect buffer size: 4096 RAS size: 32
Heartbeat CPU 0 instructions: 10000001 cycles: 2160011 heartbeat IPC: 4.62961 cumulative IPC: 4.62961 (Simulation time: 0 hr 5 min 23 sec) 
Heartbeat CPU 0 instructions: 20000002 cycles: 4329202 heartbeat IPC: 4.61001 cumulative IPC: 4.61979 (Simulation time: 0 hr 10 min 41 sec) 
Heartbeat CPU 0 instructions: 30000001 cycles: 6490463 heartbeat IPC: 4.62693 cumulative IPC: 4.62217 (Simulation time: 0 hr 15 min 54 sec) 
Heartbeat CPU 0 instructions: 40000004 cycles: 8660131 heartbeat IPC: 4.609 cumulative IPC: 4.61887 (Simulation time: 0 hr 21 min 9 sec) 
Heartbeat CPU 0 instructions: 50000004 cycles: 10824066 heartbeat IPC: 4.62121 cumulative IPC: 4.61934 (Simulation time: 0 hr 26 min 24 sec) 

Warmup complete CPU 0 instructions: 50000004 cycles: 10824066 (Simulation time: 0 hr 26 min 24 sec) 

Heartbeat CPU 0 instructions: 60000001 cycles: 17042539 heartbeat IPC: 1.60811 cumulative IPC: 1.60811 (Simulation time: 0 hr 35 min 12 sec) 
Heartbeat CPU 0 instructions: 70000001 cycles: 23383353 heartbeat IPC: 1.57708 cumulative IPC: 1.59245 (Simulation time: 0 hr 44 min 12 sec) 
Heartbeat CPU 0 instructions: 80000000 cycles: 29651934 heartbeat IPC: 1.59526 cumulative IPC: 1.59338 (Simulation time: 0 hr 53 min 6 sec) 
Heartbeat CPU 0 instructions: 90000003 cycles: 35822935 heartbeat IPC: 1.62048 cumulative IPC: 1.60007 (Simulation time: 1 hr 2 min 4 sec) 
Heartbeat CPU 0 instructions: 100000003 cycles: 41923723 heartbeat IPC: 1.63913 cumulative IPC: 1.60773 (Simulation time: 1 hr 11 min 3 sec) 
Finished CPU 0 instructions: 50000002 cycles: 31099658 cumulative IPC: 1.60773 (Simulation time: 1 hr 11 min 3 sec) 

ChampSim completed all CPUs

Region of Interest Statistics

CPU 0 cumulative IPC: 1.60773 instructions: 50000002 cycles: 31099658
L1D TOTAL     ACCESS:   13232458  HIT:   12331747  MISS:     900711
L1D LOAD      ACCESS:    6826554  HIT:    6175103  MISS:     651451
L1D RFO       ACCESS:    6405904  HIT:    6156644  MISS:     249260
L1D PREFETCH  ACCESS:          0  HIT:          0  MISS:          0
L1D WRITEBACK ACCESS:          0  HIT:          0  MISS:          0
L1D PREFETCH  REQUESTED:          0  ISSUED:          0  USEFUL:          0  USELESS:          0
L1D AVERAGE MISS LATENCY: 19.3085 cycles
L1I TOTAL     ACCESS:   24808112  HIT:   22171038  MISS:    2637074
L1I LOAD      ACCESS:    6237061  HIT:    4809264  MISS:    1427797
L1I RFO       ACCESS:          0  HIT:          0  MISS:          0
L1I PREFETCH  ACCESS:   18571051  HIT:   17361774  MISS:    1209277
L1I WRITEBACK ACCESS:          0  HIT:          0  MISS:          0
L1I PREFETCH  REQUESTED:   25354411  ISSUED:   25354172  USEFUL:    1074475  USELESS:     134798
L1I AVERAGE MISS LATENCY: 10.2406 cycles
L2C TOTAL     ACCESS:    3987531  HIT:    3528735  MISS:     458796
L2C LOAD      ACCESS:    1547302  HIT:    1347327  MISS:     199975
L2C RFO       ACCESS:     249167  HIT:     178291  MISS:      70876
L2C PREFETCH  ACCESS:    1741210  HIT:    1562753  MISS:     178457
L2C WRITEBACK ACCESS:     449852  HIT:     440364  MISS:       9488
L2C PREFETCH  REQUESTED:          0  ISSUED:          0  USEFUL:      80198  USELESS:      98213
L2C AVERAGE MISS LATENCY: 27.8353 cycles
LLC TOTAL     ACCESS:     563062  HIT:     543143  MISS:      19919
LLC LOAD      ACCESS:     199960  HIT:     192140  MISS:       7820
LLC RFO       ACCESS:      70874  HIT:      59724  MISS:      11150
LLC PREFETCH  ACCESS:     178457  HIT:     177610  MISS:        847
LLC WRITEBACK ACCESS:     113771  HIT:     113669  MISS:        102
LLC PREFETCH  REQUESTED:          0  ISSUED:          0  USEFUL:        313  USELESS:       1569
LLC AVERAGE MISS LATENCY: 190 cycles
CPU 0 L1I FDIP final stats

DRAM Statistics
 CHANNEL 0
 RQ ROW_BUFFER_HIT:       7166  ROW_BUFFER_MISS:      12638
 DBUS_CONGESTED:      13381
 WQ ROW_BUFFER_HIT:       1017  ROW_BUFFER_MISS:       8764  FULL:          0

 AVG_CONGESTED_CYCLE: 6

CPU 0 Branch Prediction Accuracy: 98.8766% MPKI: 2.09658 Average ROB Occupancy at Mispredict: 240.201
Branch type MPKI
BRANCH_DIRECT_JUMP: 0.1699
BRANCH_INDIRECT: 0.35976
BRANCH_CONDITIONAL: 0.64868
BRANCH_DIRECT_CALL: 0.30654
BRANCH_INDIRECT_CALL: 0.44114
BRANCH_RETURN: 0.17056

