
VirtualMemory physical capacity: 8589934592 num_ppages: 2097152
VirtualMemory page size: 4096 log2_page_size: 12
VirtualMemory initalizing ppage free list ... done
VirtualMemory shuffling ppage free list ... done

 (TAGE 463917)  (LOOP 1248)  (SC 58190)  (TOTAL 523355 bits 511 Kbits)  (TOTAL 523355 bits 511 Kbits) 
*** ChampSim Multicore Out-of-Order Simulator ***

Warmup Instructions: 50000000
Simulation Instructions: 50000000
Number of CPUs: 1
LLC sets: 2048
LLC ways: 16
Off-chip DRAM Size: 4096 MB Channels: 1 Width: 64-bit Data Rate: 3200 MT/s

CPU 0 runs /home/isaachywong/champsim-pt/ipc1_public/spec_gobmk_002.champsimtrace.xz
CPU 0 Tage branch predictor
CPU 0 L1I FDIP
Basic BTB sets: 2048 ways: 4 indirect buffer size: 4096 RAS size: 32
Heartbeat CPU 0 instructions: 10000003 cycles: 2089076 heartbeat IPC: 4.78681 cumulative IPC: 4.78681 (Simulation time: 0 hr 4 min 9 sec) 
Heartbeat CPU 0 instructions: 20000003 cycles: 4221657 heartbeat IPC: 4.68915 cumulative IPC: 4.73748 (Simulation time: 0 hr 8 min 29 sec) 
Heartbeat CPU 0 instructions: 30000003 cycles: 6316781 heartbeat IPC: 4.77299 cumulative IPC: 4.74925 (Simulation time: 0 hr 12 min 50 sec) 
Heartbeat CPU 0 instructions: 40000004 cycles: 8366849 heartbeat IPC: 4.87789 cumulative IPC: 4.78077 (Simulation time: 0 hr 17 min 0 sec) 
Heartbeat CPU 0 instructions: 50000000 cycles: 10416794 heartbeat IPC: 4.87818 cumulative IPC: 4.79994 (Simulation time: 0 hr 21 min 5 sec) 

Warmup complete CPU 0 instructions: 50000005 cycles: 10416795 (Simulation time: 0 hr 21 min 5 sec) 

Heartbeat CPU 0 instructions: 60000001 cycles: 16409424 heartbeat IPC: 1.66872 cumulative IPC: 1.66872 (Simulation time: 0 hr 25 min 36 sec) 
Heartbeat CPU 0 instructions: 70000004 cycles: 22306747 heartbeat IPC: 1.69569 cumulative IPC: 1.68209 (Simulation time: 0 hr 30 min 10 sec) 
Heartbeat CPU 0 instructions: 80000002 cycles: 28095187 heartbeat IPC: 1.72758 cumulative IPC: 1.69699 (Simulation time: 0 hr 34 min 51 sec) 
Heartbeat CPU 0 instructions: 90000002 cycles: 33744504 heartbeat IPC: 1.77013 cumulative IPC: 1.7147 (Simulation time: 0 hr 38 min 54 sec) 
Heartbeat CPU 0 instructions: 100000004 cycles: 39988673 heartbeat IPC: 1.60149 cumulative IPC: 1.6908 (Simulation time: 0 hr 43 min 50 sec) 
Finished CPU 0 instructions: 50000000 cycles: 29571882 cumulative IPC: 1.6908 (Simulation time: 0 hr 43 min 50 sec) 

ChampSim completed all CPUs

Region of Interest Statistics

CPU 0 cumulative IPC: 1.6908 instructions: 50000000 cycles: 29571882
L1D TOTAL     ACCESS:    9988053  HIT:    9914917  MISS:      73136
L1D LOAD      ACCESS:    5603324  HIT:    5566387  MISS:      36937
L1D RFO       ACCESS:    4384729  HIT:    4348530  MISS:      36199
L1D PREFETCH  ACCESS:          0  HIT:          0  MISS:          0
L1D WRITEBACK ACCESS:          0  HIT:          0  MISS:          0
L1D PREFETCH  REQUESTED:          0  ISSUED:          0  USEFUL:          0  USELESS:          0
L1D AVERAGE MISS LATENCY: 55.7227 cycles
L1I TOTAL     ACCESS:   16433336  HIT:   15978150  MISS:     455186
L1I LOAD      ACCESS:    4744771  HIT:    4534006  MISS:     210765
L1I RFO       ACCESS:          0  HIT:          0  MISS:          0
L1I PREFETCH  ACCESS:   11688565  HIT:   11444144  MISS:     244421
L1I WRITEBACK ACCESS:          0  HIT:          0  MISS:          0
L1I PREFETCH  REQUESTED:   15679552  ISSUED:   15679532  USEFUL:     234893  USELESS:       9543
L1I AVERAGE MISS LATENCY: 8.07997 cycles
L2C TOTAL     ACCESS:     585597  HIT:     561586  MISS:      24011
L2C LOAD      ACCESS:     108521  HIT:      89271  MISS:      19250
L2C RFO       ACCESS:      36196  HIT:      33586  MISS:       2610
L2C PREFETCH  ACCESS:     383600  HIT:     381578  MISS:       2022
L2C WRITEBACK ACCESS:      57280  HIT:      57151  MISS:        129
L2C PREFETCH  REQUESTED:          0  ISSUED:          0  USEFUL:        962  USELESS:        731
L2C AVERAGE MISS LATENCY: 147.143 cycles
LLC TOTAL     ACCESS:      41773  HIT:      23310  MISS:      18463
LLC LOAD      ACCESS:      19248  HIT:       3306  MISS:      15942
LLC RFO       ACCESS:       2610  HIT:        988  MISS:       1622
LLC PREFETCH  ACCESS:       2022  HIT:       1223  MISS:        799
LLC WRITEBACK ACCESS:      17893  HIT:      17793  MISS:        100
LLC PREFETCH  REQUESTED:          0  ISSUED:          0  USEFUL:         52  USELESS:       2732
LLC AVERAGE MISS LATENCY: 165.49 cycles
CPU 0 L1I FDIP final stats

DRAM Statistics
 CHANNEL 0
 RQ ROW_BUFFER_HIT:        797  ROW_BUFFER_MISS:      17566
 DBUS_CONGESTED:       3591
 WQ ROW_BUFFER_HIT:        428  ROW_BUFFER_MISS:       7301  FULL:          0

 AVG_CONGESTED_CYCLE: 6

CPU 0 Branch Prediction Accuracy: 95.9228% MPKI: 6.95872 Average ROB Occupancy at Mispredict: 133.491
Branch type MPKI
BRANCH_DIRECT_JUMP: 0.01184
BRANCH_INDIRECT: 0.00028
BRANCH_CONDITIONAL: 6.92956
BRANCH_DIRECT_CALL: 0.01106
BRANCH_INDIRECT_CALL: 0.00032
BRANCH_RETURN: 0.00566

