
VirtualMemory physical capacity: 8589934592 num_ppages: 2097152
VirtualMemory page size: 4096 log2_page_size: 12
VirtualMemory initalizing ppage free list ... done
VirtualMemory shuffling ppage free list ... done

 (TOTAL 523355 bits 511 Kbits) 
*** ChampSim Multicore Out-of-Order Simulator ***

Warmup Instructions: 50000000
Simulation Instructions: 50000000
Number of CPUs: 1
LLC sets: 2048
LLC ways: 16
Off-chip DRAM Size: 4096 MB Channels: 1 Width: 64-bit Data Rate: 3200 MT/s

CPU 0 runs /home/isaachywong/champsim-pt/ipc1_public/server_013.champsimtrace.xz
CPU 0 Tage branch predictor
CPU 0 L1I FDIP
Basic BTB sets: 2048 ways: 4 indirect buffer size: 4096 RAS size: 32
Heartbeat CPU 0 instructions: 10000004 cycles: 2081350 heartbeat IPC: 4.80458 cumulative IPC: 4.80458 (Simulation time: 0 hr 6 min 16 sec) 
Heartbeat CPU 0 instructions: 20000004 cycles: 4151320 heartbeat IPC: 4.83099 cumulative IPC: 4.81775 (Simulation time: 0 hr 12 min 25 sec) 
Heartbeat CPU 0 instructions: 30000002 cycles: 6222626 heartbeat IPC: 4.82787 cumulative IPC: 4.82112 (Simulation time: 0 hr 18 min 34 sec) 
Heartbeat CPU 0 instructions: 40000000 cycles: 8293854 heartbeat IPC: 4.82805 cumulative IPC: 4.82285 (Simulation time: 0 hr 24 min 40 sec) 
Heartbeat CPU 0 instructions: 50000003 cycles: 10360391 heartbeat IPC: 4.83901 cumulative IPC: 4.82607 (Simulation time: 0 hr 30 min 56 sec) 

Warmup complete CPU 0 instructions: 50000003 cycles: 10360391 (Simulation time: 0 hr 30 min 56 sec) 

Heartbeat CPU 0 instructions: 60000003 cycles: 16718000 heartbeat IPC: 1.57292 cumulative IPC: 1.57292 (Simulation time: 0 hr 36 min 36 sec) 
Heartbeat CPU 0 instructions: 70000003 cycles: 23171308 heartbeat IPC: 1.54959 cumulative IPC: 1.56117 (Simulation time: 0 hr 42 min 20 sec) 
Heartbeat CPU 0 instructions: 80000002 cycles: 29265858 heartbeat IPC: 1.64081 cumulative IPC: 1.58684 (Simulation time: 0 hr 47 min 51 sec) 
Heartbeat CPU 0 instructions: 90000001 cycles: 35509388 heartbeat IPC: 1.60166 cumulative IPC: 1.59052 (Simulation time: 0 hr 53 min 28 sec) 
Heartbeat CPU 0 instructions: 100000002 cycles: 41714420 heartbeat IPC: 1.6116 cumulative IPC: 1.59469 (Simulation time: 0 hr 59 min 5 sec) 
Finished CPU 0 instructions: 50000004 cycles: 31354030 cumulative IPC: 1.59469 (Simulation time: 0 hr 59 min 5 sec) 

ChampSim completed all CPUs

Region of Interest Statistics

CPU 0 cumulative IPC: 1.59469 instructions: 50000004 cycles: 31354030
L1D TOTAL     ACCESS:   10919703  HIT:   10272610  MISS:     647093
L1D LOAD      ACCESS:    5996577  HIT:    5436866  MISS:     559711
L1D RFO       ACCESS:    4923126  HIT:    4835744  MISS:      87382
L1D PREFETCH  ACCESS:          0  HIT:          0  MISS:          0
L1D WRITEBACK ACCESS:          0  HIT:          0  MISS:          0
L1D PREFETCH  REQUESTED:          0  ISSUED:          0  USEFUL:          0  USELESS:          0
L1D AVERAGE MISS LATENCY: 38.2859 cycles
L1I TOTAL     ACCESS:   14939744  HIT:   13562900  MISS:    1376844
L1I LOAD      ACCESS:    5188742  HIT:    4490167  MISS:     698575
L1I RFO       ACCESS:          0  HIT:          0  MISS:          0
L1I PREFETCH  ACCESS:    9751002  HIT:    9072733  MISS:     678269
L1I WRITEBACK ACCESS:          0  HIT:          0  MISS:          0
L1I PREFETCH  REQUESTED:   13575046  ISSUED:   13574939  USEFUL:     663698  USELESS:      14597
L1I AVERAGE MISS LATENCY: 11.705 cycles
L2C TOTAL     ACCESS:    2279961  HIT:    1280126  MISS:     999835
L2C LOAD      ACCESS:     766160  HIT:     388524  MISS:     377636
L2C RFO       ACCESS:      87368  HIT:      35086  MISS:      52282
L2C PREFETCH  ACCESS:    1170340  HIT:     603011  MISS:     567329
L2C WRITEBACK ACCESS:     256093  HIT:     253505  MISS:       2588
L2C PREFETCH  REQUESTED:          0  ISSUED:          0  USEFUL:     176286  USELESS:     390538
L2C AVERAGE MISS LATENCY: 31.2722 cycles
LLC TOTAL     ACCESS:    1152276  HIT:    1076995  MISS:      75281
LLC LOAD      ACCESS:     377633  HIT:     318272  MISS:      59361
LLC RFO       ACCESS:      52271  HIT:      41712  MISS:      10559
LLC PREFETCH  ACCESS:     567329  HIT:     562046  MISS:       5283
LLC WRITEBACK ACCESS:     155043  HIT:     154965  MISS:         78
LLC PREFETCH  REQUESTED:          0  ISSUED:          0  USEFUL:       3181  USELESS:       2672
LLC AVERAGE MISS LATENCY: 150.374 cycles
CPU 0 L1I FDIP final stats

DRAM Statistics
 CHANNEL 0
 RQ ROW_BUFFER_HIT:       9540  ROW_BUFFER_MISS:      65660
 DBUS_CONGESTED:      34317
 WQ ROW_BUFFER_HIT:      11891  ROW_BUFFER_MISS:      40321  FULL:          0

 AVG_CONGESTED_CYCLE: 6

CPU 0 Branch Prediction Accuracy: 96.0705% MPKI: 7.29846 Average ROB Occupancy at Mispredict: 172.041
Branch type MPKI
BRANCH_DIRECT_JUMP: 0.24356
BRANCH_INDIRECT: 0.29844
BRANCH_CONDITIONAL: 4.61734
BRANCH_DIRECT_CALL: 0.53242
BRANCH_INDIRECT_CALL: 0.12584
BRANCH_RETURN: 1.48086

