
VirtualMemory physical capacity: 8589934592 num_ppages: 2097152
VirtualMemory page size: 4096 log2_page_size: 12
VirtualMemory initalizing ppage free list ... done
VirtualMemory shuffling ppage free list ... done

 (TOTAL 523355 bits 511 Kbits) 
*** ChampSim Multicore Out-of-Order Simulator ***

Warmup Instructions: 50000000
Simulation Instructions: 50000000
Number of CPUs: 1
LLC sets: 2048
LLC ways: 16
Off-chip DRAM Size: 4096 MB Channels: 1 Width: 64-bit Data Rate: 3200 MT/s

CPU 0 runs /home/isaachywong/champsim-pt/ipc1_public/server_011.champsimtrace.xz
CPU 0 Tage branch predictor
CPU 0 L1I FDIP
Basic BTB sets: 2048 ways: 4 indirect buffer size: 4096 RAS size: 32
Heartbeat CPU 0 instructions: 10000003 cycles: 2085795 heartbeat IPC: 4.79434 cumulative IPC: 4.79434 (Simulation time: 0 hr 6 min 21 sec) 
Heartbeat CPU 0 instructions: 20000000 cycles: 4174930 heartbeat IPC: 4.78667 cumulative IPC: 4.7905 (Simulation time: 0 hr 12 min 28 sec) 
Heartbeat CPU 0 instructions: 30000001 cycles: 6301628 heartbeat IPC: 4.70213 cumulative IPC: 4.76067 (Simulation time: 0 hr 18 min 54 sec) 
Heartbeat CPU 0 instructions: 40000002 cycles: 8387440 heartbeat IPC: 4.7943 cumulative IPC: 4.76904 (Simulation time: 0 hr 25 min 8 sec) 
Heartbeat CPU 0 instructions: 50000001 cycles: 10478260 heartbeat IPC: 4.78281 cumulative IPC: 4.77178 (Simulation time: 0 hr 31 min 16 sec) 

Warmup complete CPU 0 instructions: 50000001 cycles: 10478260 (Simulation time: 0 hr 31 min 16 sec) 

Heartbeat CPU 0 instructions: 60000002 cycles: 16796628 heartbeat IPC: 1.58269 cumulative IPC: 1.58269 (Simulation time: 0 hr 36 min 46 sec) 
Heartbeat CPU 0 instructions: 70000001 cycles: 23698136 heartbeat IPC: 1.44896 cumulative IPC: 1.51287 (Simulation time: 0 hr 42 min 20 sec) 
Heartbeat CPU 0 instructions: 80000000 cycles: 31393412 heartbeat IPC: 1.2995 cumulative IPC: 1.43437 (Simulation time: 0 hr 46 min 15 sec) 
Heartbeat CPU 0 instructions: 90000002 cycles: 37731752 heartbeat IPC: 1.5777 cumulative IPC: 1.4677 (Simulation time: 0 hr 51 min 43 sec) 
Heartbeat CPU 0 instructions: 100000002 cycles: 43975060 heartbeat IPC: 1.60171 cumulative IPC: 1.49268 (Simulation time: 0 hr 57 min 10 sec) 
Finished CPU 0 instructions: 50000001 cycles: 33496800 cumulative IPC: 1.49268 (Simulation time: 0 hr 57 min 10 sec) 

ChampSim completed all CPUs

Region of Interest Statistics

CPU 0 cumulative IPC: 1.49268 instructions: 50000001 cycles: 33496800
L1D TOTAL     ACCESS:   11110012  HIT:   10477335  MISS:     632677
L1D LOAD      ACCESS:    6298994  HIT:    5756242  MISS:     542752
L1D RFO       ACCESS:    4811018  HIT:    4721093  MISS:      89925
L1D PREFETCH  ACCESS:          0  HIT:          0  MISS:          0
L1D WRITEBACK ACCESS:          0  HIT:          0  MISS:          0
L1D PREFETCH  REQUESTED:          0  ISSUED:          0  USEFUL:          0  USELESS:          0
L1D AVERAGE MISS LATENCY: 37.9439 cycles
L1I TOTAL     ACCESS:   13777215  HIT:   12580753  MISS:    1196462
L1I LOAD      ACCESS:    4600015  HIT:    3986357  MISS:     613658
L1I RFO       ACCESS:          0  HIT:          0  MISS:          0
L1I PREFETCH  ACCESS:    9177200  HIT:    8594396  MISS:     582804
L1I WRITEBACK ACCESS:          0  HIT:          0  MISS:          0
L1I PREFETCH  REQUESTED:   12775659  ISSUED:   12775528  USEFUL:     569905  USELESS:      12928
L1I AVERAGE MISS LATENCY: 12.6477 cycles
L2C TOTAL     ACCESS:    2078016  HIT:    1243507  MISS:     834509
L2C LOAD      ACCESS:     733162  HIT:     413599  MISS:     319563
L2C RFO       ACCESS:      89874  HIT:      38217  MISS:      51657
L2C PREFETCH  ACCESS:    1006013  HIT:     544915  MISS:     461098
L2C WRITEBACK ACCESS:     248967  HIT:     246776  MISS:       2191
L2C PREFETCH  REQUESTED:          0  ISSUED:          0  USEFUL:     166202  USELESS:     294199
L2C AVERAGE MISS LATENCY: 37.0939 cycles
LLC TOTAL     ACCESS:     971115  HIT:     879049  MISS:      92066
LLC LOAD      ACCESS:     319542  HIT:     261354  MISS:      58188
LLC RFO       ACCESS:      51653  HIT:      34600  MISS:      17053
LLC PREFETCH  ACCESS:     461098  HIT:     444361  MISS:      16737
LLC WRITEBACK ACCESS:     138822  HIT:     138734  MISS:         88
LLC PREFETCH  REQUESTED:          0  ISSUED:          0  USEFUL:       7985  USELESS:       8874
LLC AVERAGE MISS LATENCY: 155.406 cycles
CPU 0 L1I FDIP final stats

DRAM Statistics
 CHANNEL 0
 RQ ROW_BUFFER_HIT:      12308  ROW_BUFFER_MISS:      79660
 DBUS_CONGESTED:      41581
 WQ ROW_BUFFER_HIT:      13291  ROW_BUFFER_MISS:      38247  FULL:          0

 AVG_CONGESTED_CYCLE: 6

CPU 0 Branch Prediction Accuracy: 94.8928% MPKI: 9.59372 Average ROB Occupancy at Mispredict: 156.837
Branch type MPKI
BRANCH_DIRECT_JUMP: 0.22892
BRANCH_INDIRECT: 0.4927
BRANCH_CONDITIONAL: 6.33584
BRANCH_DIRECT_CALL: 0.50298
BRANCH_INDIRECT_CALL: 0.75052
BRANCH_RETURN: 1.28276

