
VirtualMemory physical capacity: 8589934592 num_ppages: 2097152
VirtualMemory page size: 4096 log2_page_size: 12
VirtualMemory initalizing ppage free list ... done
VirtualMemory shuffling ppage free list ... done

 (TAGE 463917)  (LOOP 1248)  (SC 58190)  (TOTAL 523355 bits 511 Kbits)  (TOTAL 523355 bits 511 Kbits) 
*** ChampSim Multicore Out-of-Order Simulator ***

Warmup Instructions: 50000000
Simulation Instructions: 50000000
Number of CPUs: 1
LLC sets: 2048
LLC ways: 16
Off-chip DRAM Size: 4096 MB Channels: 1 Width: 64-bit Data Rate: 3200 MT/s

CPU 0 runs /home/isaachywong/champsim-pt/ipc1_public/client_008.champsimtrace.xz
CPU 0 Tage branch predictor
CPU 0 L1I FDIP
Basic BTB sets: 2048 ways: 4 indirect buffer size: 4096 RAS size: 32
Heartbeat CPU 0 instructions: 10000004 cycles: 2748217 heartbeat IPC: 3.63872 cumulative IPC: 3.63872 (Simulation time: 0 hr 7 min 50 sec) 
Heartbeat CPU 0 instructions: 20000004 cycles: 5551192 heartbeat IPC: 3.56764 cumulative IPC: 3.60283 (Simulation time: 0 hr 15 min 43 sec) 
Heartbeat CPU 0 instructions: 30000002 cycles: 8317087 heartbeat IPC: 3.61547 cumulative IPC: 3.60703 (Simulation time: 0 hr 23 min 26 sec) 
Heartbeat CPU 0 instructions: 40000004 cycles: 11159481 heartbeat IPC: 3.51816 cumulative IPC: 3.5844 (Simulation time: 0 hr 31 min 13 sec) 
Heartbeat CPU 0 instructions: 50000001 cycles: 13973483 heartbeat IPC: 3.55366 cumulative IPC: 3.57821 (Simulation time: 0 hr 39 min 15 sec) 

Warmup complete CPU 0 instructions: 50000001 cycles: 13973483 (Simulation time: 0 hr 39 min 15 sec) 

Heartbeat CPU 0 instructions: 60000000 cycles: 20737224 heartbeat IPC: 1.47847 cumulative IPC: 1.47847 (Simulation time: 0 hr 45 min 25 sec) 
Heartbeat CPU 0 instructions: 70000001 cycles: 26786132 heartbeat IPC: 1.65319 cumulative IPC: 1.56096 (Simulation time: 0 hr 51 min 16 sec) 
Heartbeat CPU 0 instructions: 80000000 cycles: 34295318 heartbeat IPC: 1.3317 cumulative IPC: 1.47624 (Simulation time: 0 hr 57 min 14 sec) 
Heartbeat CPU 0 instructions: 90000001 cycles: 40400762 heartbeat IPC: 1.63788 cumulative IPC: 1.51359 (Simulation time: 1 hr 3 min 16 sec) 
Heartbeat CPU 0 instructions: 100000002 cycles: 47135928 heartbeat IPC: 1.48474 cumulative IPC: 1.50773 (Simulation time: 1 hr 11 min 15 sec) 
Finished CPU 0 instructions: 50000001 cycles: 33162445 cumulative IPC: 1.50773 (Simulation time: 1 hr 11 min 15 sec) 

ChampSim completed all CPUs

Region of Interest Statistics

CPU 0 cumulative IPC: 1.50773 instructions: 50000001 cycles: 33162445
L1D TOTAL     ACCESS:   12207934  HIT:   11338677  MISS:     869257
L1D LOAD      ACCESS:    7473772  HIT:    6721584  MISS:     752188
L1D RFO       ACCESS:    4734162  HIT:    4617093  MISS:     117069
L1D PREFETCH  ACCESS:          0  HIT:          0  MISS:          0
L1D WRITEBACK ACCESS:          0  HIT:          0  MISS:          0
L1D PREFETCH  REQUESTED:          0  ISSUED:          0  USEFUL:          0  USELESS:          0
L1D AVERAGE MISS LATENCY: 42.7119 cycles
L1I TOTAL     ACCESS:   18233775  HIT:   17503463  MISS:     730312
L1I LOAD      ACCESS:    4468149  HIT:    4097760  MISS:     370389
L1I RFO       ACCESS:          0  HIT:          0  MISS:          0
L1I PREFETCH  ACCESS:   13765626  HIT:   13405703  MISS:     359923
L1I WRITEBACK ACCESS:          0  HIT:          0  MISS:          0
L1I PREFETCH  REQUESTED:   19716058  ISSUED:   19715892  USEFUL:     336179  USELESS:      23782
L1I AVERAGE MISS LATENCY: 10.1419 cycles
L2C TOTAL     ACCESS:    1767544  HIT:    1447836  MISS:     319708
L2C LOAD      ACCESS:     934789  HIT:     742921  MISS:     191868
L2C RFO       ACCESS:     117067  HIT:      14519  MISS:     102548
L2C PREFETCH  ACCESS:     547699  HIT:     522886  MISS:      24813
L2C WRITEBACK ACCESS:     167989  HIT:     167510  MISS:        479
L2C PREFETCH  REQUESTED:          0  ISSUED:          0  USEFUL:      13362  USELESS:      12272
L2C AVERAGE MISS LATENCY: 93.3043 cycles
LLC TOTAL     ACCESS:     448775  HIT:     304274  MISS:     144501
LLC LOAD      ACCESS:     191860  HIT:     147731  MISS:      44129
LLC RFO       ACCESS:     102547  HIT:       9522  MISS:      93025
LLC PREFETCH  ACCESS:      24813  HIT:      17686  MISS:       7127
LLC WRITEBACK ACCESS:     129555  HIT:     129335  MISS:        220
LLC PREFETCH  REQUESTED:          0  ISSUED:          0  USEFUL:       2282  USELESS:       5998
LLC AVERAGE MISS LATENCY: 162.249 cycles
CPU 0 L1I FDIP final stats

DRAM Statistics
 CHANNEL 0
 RQ ROW_BUFFER_HIT:      37494  ROW_BUFFER_MISS:     106770
 DBUS_CONGESTED:      82958
 WQ ROW_BUFFER_HIT:      25153  ROW_BUFFER_MISS:      60311  FULL:          0

 AVG_CONGESTED_CYCLE: 6

CPU 0 Branch Prediction Accuracy: 97.5274% MPKI: 5.7712 Average ROB Occupancy at Mispredict: 211.705
Branch type MPKI
BRANCH_DIRECT_JUMP: 0.02902
BRANCH_INDIRECT: 1.26656
BRANCH_CONDITIONAL: 1.67334
BRANCH_DIRECT_CALL: 0.04918
BRANCH_INDIRECT_CALL: 2.73406
BRANCH_RETURN: 0.01904

