
VirtualMemory physical capacity: 8589934592 num_ppages: 2097152
VirtualMemory page size: 4096 log2_page_size: 12
VirtualMemory initalizing ppage free list ... done
VirtualMemory shuffling ppage free list ... done

 (TAGE 463917)  (LOOP 1248)  (SC 58190)  (TOTAL 523355 bits 511 Kbits)  (TOTAL 523355 bits 511 Kbits) 
*** ChampSim Multicore Out-of-Order Simulator ***

Warmup Instructions: 50000000
Simulation Instructions: 50000000
Number of CPUs: 1
LLC sets: 2048
LLC ways: 16
Off-chip DRAM Size: 4096 MB Channels: 1 Width: 64-bit Data Rate: 3200 MT/s

CPU 0 runs /home/isaachywong/champsim-pt/ipc1_public/server_034.champsimtrace.xz
CPU 0 Tage branch predictor
CPU 0 L1I FDIP
Basic BTB sets: 2048 ways: 4 indirect buffer size: 4096 RAS size: 32
Heartbeat CPU 0 instructions: 10000004 cycles: 2166572 heartbeat IPC: 4.61559 cumulative IPC: 4.61559 (Simulation time: 0 hr 4 min 25 sec) 
Heartbeat CPU 0 instructions: 20000002 cycles: 4329780 heartbeat IPC: 4.62276 cumulative IPC: 4.61917 (Simulation time: 0 hr 8 min 45 sec) 
Heartbeat CPU 0 instructions: 30000003 cycles: 6493512 heartbeat IPC: 4.62164 cumulative IPC: 4.62 (Simulation time: 0 hr 13 min 9 sec) 
Heartbeat CPU 0 instructions: 40000002 cycles: 8658232 heartbeat IPC: 4.61953 cumulative IPC: 4.61988 (Simulation time: 0 hr 17 min 32 sec) 
Heartbeat CPU 0 instructions: 50000002 cycles: 10824876 heartbeat IPC: 4.61543 cumulative IPC: 4.61899 (Simulation time: 0 hr 21 min 51 sec) 

Warmup complete CPU 0 instructions: 50000002 cycles: 10824876 (Simulation time: 0 hr 21 min 51 sec) 

Heartbeat CPU 0 instructions: 60000002 cycles: 16243908 heartbeat IPC: 1.84535 cumulative IPC: 1.84535 (Simulation time: 0 hr 31 min 19 sec) 
Heartbeat CPU 0 instructions: 70000004 cycles: 21860379 heartbeat IPC: 1.78048 cumulative IPC: 1.81233 (Simulation time: 0 hr 40 min 59 sec) 
Heartbeat CPU 0 instructions: 80000002 cycles: 27276998 heartbeat IPC: 1.84617 cumulative IPC: 1.82347 (Simulation time: 0 hr 50 min 26 sec) 
Heartbeat CPU 0 instructions: 90000002 cycles: 32694475 heartbeat IPC: 1.84588 cumulative IPC: 1.82902 (Simulation time: 0 hr 59 min 54 sec) 
Heartbeat CPU 0 instructions: 100000000 cycles: 38130213 heartbeat IPC: 1.83968 cumulative IPC: 1.83114 (Simulation time: 1 hr 9 min 24 sec) 
Finished CPU 0 instructions: 50000002 cycles: 27305338 cumulative IPC: 1.83114 (Simulation time: 1 hr 9 min 24 sec) 

ChampSim completed all CPUs

Region of Interest Statistics

CPU 0 cumulative IPC: 1.83114 instructions: 50000002 cycles: 27305338
L1D TOTAL     ACCESS:   12161104  HIT:   11555333  MISS:     605771
L1D LOAD      ACCESS:    5901681  HIT:    5378918  MISS:     522763
L1D RFO       ACCESS:    6259423  HIT:    6176415  MISS:      83008
L1D PREFETCH  ACCESS:          0  HIT:          0  MISS:          0
L1D WRITEBACK ACCESS:          0  HIT:          0  MISS:          0
L1D PREFETCH  REQUESTED:          0  ISSUED:          0  USEFUL:          0  USELESS:          0
L1D AVERAGE MISS LATENCY: 13.267 cycles
L1I TOTAL     ACCESS:   27703224  HIT:   24200538  MISS:    3502686
L1I LOAD      ACCESS:    6792053  HIT:    4563066  MISS:    2228987
L1I RFO       ACCESS:          0  HIT:          0  MISS:          0
L1I PREFETCH  ACCESS:   20911171  HIT:   19637472  MISS:    1273699
L1I WRITEBACK ACCESS:          0  HIT:          0  MISS:          0
L1I PREFETCH  REQUESTED:   27942464  ISSUED:   27942273  USEFUL:    1158643  USELESS:     115072
L1I AVERAGE MISS LATENCY: 10.0217 cycles
L2C TOTAL     ACCESS:    4337132  HIT:    4276466  MISS:      60666
L2C LOAD      ACCESS:    2270259  HIT:    2230737  MISS:      39522
L2C RFO       ACCESS:      82924  HIT:      72922  MISS:      10002
L2C PREFETCH  ACCESS:    1755144  HIT:    1745854  MISS:       9290
L2C WRITEBACK ACCESS:     228805  HIT:     226953  MISS:       1852
L2C PREFETCH  REQUESTED:          0  ISSUED:          0  USEFUL:       5329  USELESS:       3859
L2C AVERAGE MISS LATENCY: 27.0002 cycles
LLC TOTAL     ACCESS:      87305  HIT:      82601  MISS:       4704
LLC LOAD      ACCESS:      39521  HIT:      36709  MISS:       2812
LLC RFO       ACCESS:      10002  HIT:       8231  MISS:       1771
LLC PREFETCH  ACCESS:       9290  HIT:       9171  MISS:        119
LLC WRITEBACK ACCESS:      28492  HIT:      28490  MISS:          2
LLC PREFETCH  REQUESTED:          0  ISSUED:          0  USEFUL:        144  USELESS:        212
LLC AVERAGE MISS LATENCY: 98.1552 cycles
CPU 0 L1I FDIP final stats

DRAM Statistics
 CHANNEL 0
 RQ ROW_BUFFER_HIT:       2632  ROW_BUFFER_MISS:       2070
 DBUS_CONGESTED:       1263
 WQ ROW_BUFFER_HIT:         48  ROW_BUFFER_MISS:        289  FULL:          0

 AVG_CONGESTED_CYCLE: 5

CPU 0 Branch Prediction Accuracy: 99.2406% MPKI: 1.48522 Average ROB Occupancy at Mispredict: 182.778
Branch type MPKI
BRANCH_DIRECT_JUMP: 0.0287
BRANCH_INDIRECT: 0.44418
BRANCH_CONDITIONAL: 0.13344
BRANCH_DIRECT_CALL: 0.02954
BRANCH_INDIRECT_CALL: 0.23302
BRANCH_RETURN: 0.61634

