
VirtualMemory physical capacity: 8589934592 num_ppages: 2097152
VirtualMemory page size: 4096 log2_page_size: 12
VirtualMemory initalizing ppage free list ... done
VirtualMemory shuffling ppage free list ... done

 (TOTAL 523355 bits 511 Kbits) 
*** ChampSim Multicore Out-of-Order Simulator ***

Warmup Instructions: 50000000
Simulation Instructions: 50000000
Number of CPUs: 1
LLC sets: 2048
LLC ways: 16
Off-chip DRAM Size: 4096 MB Channels: 1 Width: 64-bit Data Rate: 3200 MT/s

CPU 0 runs /home/isaachywong/champsim-pt/ipc1_public/server_024.champsimtrace.xz
CPU 0 Tage branch predictor
CPU 0 L1I FDIP
Basic BTB sets: 2048 ways: 4 indirect buffer size: 4096 RAS size: 32
Heartbeat CPU 0 instructions: 10000001 cycles: 2153466 heartbeat IPC: 4.64368 cumulative IPC: 4.64368 (Simulation time: 0 hr 5 min 21 sec) 
Heartbeat CPU 0 instructions: 20000004 cycles: 4298400 heartbeat IPC: 4.66215 cumulative IPC: 4.65289 (Simulation time: 0 hr 10 min 31 sec) 
Heartbeat CPU 0 instructions: 30000000 cycles: 6452079 heartbeat IPC: 4.64322 cumulative IPC: 4.64966 (Simulation time: 0 hr 15 min 46 sec) 
Heartbeat CPU 0 instructions: 40000001 cycles: 8606879 heartbeat IPC: 4.6408 cumulative IPC: 4.64745 (Simulation time: 0 hr 21 min 0 sec) 
Heartbeat CPU 0 instructions: 50000002 cycles: 10752381 heartbeat IPC: 4.66091 cumulative IPC: 4.65013 (Simulation time: 0 hr 26 min 11 sec) 

Warmup complete CPU 0 instructions: 50000002 cycles: 10752381 (Simulation time: 0 hr 26 min 11 sec) 

Heartbeat CPU 0 instructions: 60000000 cycles: 17430142 heartbeat IPC: 1.49751 cumulative IPC: 1.49751 (Simulation time: 0 hr 32 min 5 sec) 
Heartbeat CPU 0 instructions: 70000000 cycles: 24140975 heartbeat IPC: 1.49013 cumulative IPC: 1.49381 (Simulation time: 0 hr 38 min 0 sec) 
*** Reached end of trace: /home/isaachywong/champsim-pt/ipc1_public/server_024.champsimtrace.xz
Heartbeat CPU 0 instructions: 80000002 cycles: 30849886 heartbeat IPC: 1.49056 cumulative IPC: 1.49272 (Simulation time: 0 hr 43 min 51 sec) 
Heartbeat CPU 0 instructions: 90000004 cycles: 37676448 heartbeat IPC: 1.46487 cumulative IPC: 1.48566 (Simulation time: 0 hr 49 min 51 sec) 
Heartbeat CPU 0 instructions: 100000004 cycles: 44433651 heartbeat IPC: 1.4799 cumulative IPC: 1.4845 (Simulation time: 0 hr 55 min 47 sec) 
Finished CPU 0 instructions: 50000002 cycles: 33681270 cumulative IPC: 1.4845 (Simulation time: 0 hr 55 min 47 sec) 

ChampSim completed all CPUs

Region of Interest Statistics

CPU 0 cumulative IPC: 1.4845 instructions: 50000002 cycles: 33681270
L1D TOTAL     ACCESS:   13113303  HIT:   12123585  MISS:     989718
L1D LOAD      ACCESS:    6931115  HIT:    6220193  MISS:     710922
L1D RFO       ACCESS:    6182188  HIT:    5903392  MISS:     278796
L1D PREFETCH  ACCESS:          0  HIT:          0  MISS:          0
L1D WRITEBACK ACCESS:          0  HIT:          0  MISS:          0
L1D PREFETCH  REQUESTED:          0  ISSUED:          0  USEFUL:          0  USELESS:          0
L1D AVERAGE MISS LATENCY: 24.6179 cycles
L1I TOTAL     ACCESS:   16257265  HIT:   13702850  MISS:    2554415
L1I LOAD      ACCESS:    5085271  HIT:    3806675  MISS:    1278596
L1I RFO       ACCESS:          0  HIT:          0  MISS:          0
L1I PREFETCH  ACCESS:   11171994  HIT:    9896175  MISS:    1275819
L1I WRITEBACK ACCESS:          0  HIT:          0  MISS:          0
L1I PREFETCH  REQUESTED:   16423228  ISSUED:   16423228  USEFUL:    1234738  USELESS:      41096
L1I AVERAGE MISS LATENCY: 8.40928 cycles
L2C TOTAL     ACCESS:    4010691  HIT:    3508498  MISS:     502193
L2C LOAD      ACCESS:    1176657  HIT:     994157  MISS:     182500
L2C RFO       ACCESS:     278685  HIT:     199757  MISS:      78928
L2C PREFETCH  ACCESS:    2088541  HIT:    1855948  MISS:     232593
L2C WRITEBACK ACCESS:     466808  HIT:     458636  MISS:       8172
L2C PREFETCH  REQUESTED:          0  ISSUED:          0  USEFUL:     127341  USELESS:     105024
L2C AVERAGE MISS LATENCY: 37.935 cycles
LLC TOTAL     ACCESS:     612667  HIT:     575358  MISS:      37309
LLC LOAD      ACCESS:     182499  HIT:     169240  MISS:      13259
LLC RFO       ACCESS:      78878  HIT:      56155  MISS:      22723
LLC PREFETCH  ACCESS:     232593  HIT:     231392  MISS:       1201
LLC WRITEBACK ACCESS:     118697  HIT:     118571  MISS:        126
LLC PREFETCH  REQUESTED:          0  ISSUED:          0  USEFUL:        566  USELESS:        746
LLC AVERAGE MISS LATENCY: 245.811 cycles
CPU 0 L1I FDIP final stats

DRAM Statistics
 CHANNEL 0
 RQ ROW_BUFFER_HIT:      12225  ROW_BUFFER_MISS:      24958
 DBUS_CONGESTED:      30408
 WQ ROW_BUFFER_HIT:       2015  ROW_BUFFER_MISS:      21738  FULL:          0

 AVG_CONGESTED_CYCLE: 6

CPU 0 Branch Prediction Accuracy: 95.8893% MPKI: 7.51936 Average ROB Occupancy at Mispredict: 160.989
Branch type MPKI
BRANCH_DIRECT_JUMP: 0.27232
BRANCH_INDIRECT: 0.4314
BRANCH_CONDITIONAL: 5.55456
BRANCH_DIRECT_CALL: 0.68734
BRANCH_INDIRECT_CALL: 0.44476
BRANCH_RETURN: 0.12898

