
VirtualMemory physical capacity: 8589934592 num_ppages: 2097152
VirtualMemory page size: 4096 log2_page_size: 12
VirtualMemory initalizing ppage free list ... done
VirtualMemory shuffling ppage free list ... done

 (TOTAL 523355 bits 511 Kbits) 
*** ChampSim Multicore Out-of-Order Simulator ***

Warmup Instructions: 50000000
Simulation Instructions: 50000000
Number of CPUs: 1
LLC sets: 2048
LLC ways: 16
Off-chip DRAM Size: 4096 MB Channels: 1 Width: 64-bit Data Rate: 3200 MT/s

CPU 0 runs /home/isaachywong/champsim-pt/ipc1_public/client_006.champsimtrace.xz
CPU 0 Tage branch predictor
CPU 0 L1I FDIP
Basic BTB sets: 2048 ways: 4 indirect buffer size: 4096 RAS size: 32
Heartbeat CPU 0 instructions: 10000002 cycles: 3539628 heartbeat IPC: 2.82516 cumulative IPC: 2.82516 (Simulation time: 0 hr 8 min 3 sec) 
Heartbeat CPU 0 instructions: 20000000 cycles: 6783591 heartbeat IPC: 3.08265 cumulative IPC: 2.94829 (Simulation time: 0 hr 15 min 57 sec) 
Heartbeat CPU 0 instructions: 30000004 cycles: 8843857 heartbeat IPC: 4.85374 cumulative IPC: 3.39219 (Simulation time: 0 hr 22 min 48 sec) 
Heartbeat CPU 0 instructions: 40000001 cycles: 11240353 heartbeat IPC: 4.17276 cumulative IPC: 3.55861 (Simulation time: 0 hr 29 min 57 sec) 
Heartbeat CPU 0 instructions: 50000000 cycles: 14334998 heartbeat IPC: 3.23139 cumulative IPC: 3.48797 (Simulation time: 0 hr 37 min 36 sec) 

Warmup complete CPU 0 instructions: 50000005 cycles: 14334999 (Simulation time: 0 hr 37 min 36 sec) 

Heartbeat CPU 0 instructions: 60000004 cycles: 21292810 heartbeat IPC: 1.43723 cumulative IPC: 1.43723 (Simulation time: 0 hr 43 min 42 sec) 
Heartbeat CPU 0 instructions: 70000004 cycles: 29768483 heartbeat IPC: 1.17985 cumulative IPC: 1.29588 (Simulation time: 0 hr 47 min 52 sec) 
Heartbeat CPU 0 instructions: 80000000 cycles: 36769723 heartbeat IPC: 1.42832 cumulative IPC: 1.33721 (Simulation time: 0 hr 54 min 27 sec) 
Heartbeat CPU 0 instructions: 90000000 cycles: 43865713 heartbeat IPC: 1.40925 cumulative IPC: 1.35452 (Simulation time: 0 hr 57 min 31 sec) 
Heartbeat CPU 0 instructions: 100000004 cycles: 50795338 heartbeat IPC: 1.44308 cumulative IPC: 1.37135 (Simulation time: 1 hr 4 min 19 sec) 
Finished CPU 0 instructions: 50000004 cycles: 36460340 cumulative IPC: 1.37135 (Simulation time: 1 hr 4 min 19 sec) 

ChampSim completed all CPUs

Region of Interest Statistics

CPU 0 cumulative IPC: 1.37135 instructions: 50000004 cycles: 36460340
L1D TOTAL     ACCESS:    9799337  HIT:    9296581  MISS:     502756
L1D LOAD      ACCESS:    5496472  HIT:    5033477  MISS:     462995
L1D RFO       ACCESS:    4302865  HIT:    4263104  MISS:      39761
L1D PREFETCH  ACCESS:          0  HIT:          0  MISS:          0
L1D WRITEBACK ACCESS:          0  HIT:          0  MISS:          0
L1D PREFETCH  REQUESTED:          0  ISSUED:          0  USEFUL:          0  USELESS:          0
L1D AVERAGE MISS LATENCY: 113.797 cycles
L1I TOTAL     ACCESS:   11199123  HIT:   10475941  MISS:     723182
L1I LOAD      ACCESS:    2769648  HIT:    2458984  MISS:     310664
L1I RFO       ACCESS:          0  HIT:          0  MISS:          0
L1I PREFETCH  ACCESS:    8429475  HIT:    8016957  MISS:     412518
L1I WRITEBACK ACCESS:          0  HIT:          0  MISS:          0
L1I PREFETCH  REQUESTED:   11619147  ISSUED:   11618914  USEFUL:     406252  USELESS:       6365
L1I AVERAGE MISS LATENCY: 11.3495 cycles
L2C TOTAL     ACCESS:    1381796  HIT:     933532  MISS:     448264
L2C LOAD      ACCESS:     624793  HIT:     243181  MISS:     381612
L2C RFO       ACCESS:      39755  HIT:       6922  MISS:      32833
L2C PREFETCH  ACCESS:     561255  HIT:     528249  MISS:      33006
L2C WRITEBACK ACCESS:     155993  HIT:     155180  MISS:        813
L2C PREFETCH  REQUESTED:          0  ISSUED:          0  USEFUL:      17495  USELESS:      17061
L2C AVERAGE MISS LATENCY: 127.915 cycles
LLC TOTAL     ACCESS:     579011  HIT:     320009  MISS:     259002
LLC LOAD      ACCESS:     381612  HIT:     166870  MISS:     214742
LLC RFO       ACCESS:      32833  HIT:       4006  MISS:      28827
LLC PREFETCH  ACCESS:      33006  HIT:      17832  MISS:      15174
LLC WRITEBACK ACCESS:     131560  HIT:     131301  MISS:        259
LLC PREFETCH  REQUESTED:          0  ISSUED:          0  USEFUL:       5923  USELESS:      11326
LLC AVERAGE MISS LATENCY: 186.832 cycles
CPU 0 L1I FDIP final stats

DRAM Statistics
 CHANNEL 0
 RQ ROW_BUFFER_HIT:      53134  ROW_BUFFER_MISS:     205591
 DBUS_CONGESTED:     141991
 WQ ROW_BUFFER_HIT:      19172  ROW_BUFFER_MISS:      90937  FULL:          0

 AVG_CONGESTED_CYCLE: 6

CPU 0 Branch Prediction Accuracy: 93.9726% MPKI: 10.3209 Average ROB Occupancy at Mispredict: 194.581
Branch type MPKI
BRANCH_DIRECT_JUMP: 0.0098
BRANCH_INDIRECT: 0.19688
BRANCH_CONDITIONAL: 9.74652
BRANCH_DIRECT_CALL: 0.00898
BRANCH_INDIRECT_CALL: 0.29744
BRANCH_RETURN: 0.06126

