
VirtualMemory physical capacity: 8589934592 num_ppages: 2097152
VirtualMemory page size: 4096 log2_page_size: 12
VirtualMemory initalizing ppage free list ... done
VirtualMemory shuffling ppage free list ... done

 (TOTAL 523355 bits 511 Kbits) 
*** ChampSim Multicore Out-of-Order Simulator ***

Warmup Instructions: 50000000
Simulation Instructions: 50000000
Number of CPUs: 1
LLC sets: 2048
LLC ways: 16
Off-chip DRAM Size: 4096 MB Channels: 1 Width: 64-bit Data Rate: 3200 MT/s

CPU 0 runs /home/isaachywong/champsim-pt/ipc1_public/server_029.champsimtrace.xz
CPU 0 Tage branch predictor
CPU 0 L1I FDIP
Basic BTB sets: 2048 ways: 4 indirect buffer size: 4096 RAS size: 32
Heartbeat CPU 0 instructions: 10000000 cycles: 2157624 heartbeat IPC: 4.63473 cumulative IPC: 4.63473 (Simulation time: 0 hr 5 min 18 sec) 
Heartbeat CPU 0 instructions: 20000000 cycles: 4315644 heartbeat IPC: 4.63388 cumulative IPC: 4.6343 (Simulation time: 0 hr 10 min 30 sec) 
Heartbeat CPU 0 instructions: 30000004 cycles: 6473585 heartbeat IPC: 4.63405 cumulative IPC: 4.63422 (Simulation time: 0 hr 15 min 40 sec) 
Heartbeat CPU 0 instructions: 40000000 cycles: 8631867 heartbeat IPC: 4.63331 cumulative IPC: 4.63399 (Simulation time: 0 hr 20 min 49 sec) 
Heartbeat CPU 0 instructions: 50000000 cycles: 10789008 heartbeat IPC: 4.63577 cumulative IPC: 4.63435 (Simulation time: 0 hr 26 min 1 sec) 

Warmup complete CPU 0 instructions: 50000005 cycles: 10789009 (Simulation time: 0 hr 26 min 1 sec) 

Heartbeat CPU 0 instructions: 60000000 cycles: 17844489 heartbeat IPC: 1.41734 cumulative IPC: 1.41734 (Simulation time: 0 hr 32 min 25 sec) 
Heartbeat CPU 0 instructions: 70000000 cycles: 25035546 heartbeat IPC: 1.39062 cumulative IPC: 1.40385 (Simulation time: 0 hr 38 min 57 sec) 
Heartbeat CPU 0 instructions: 80000002 cycles: 32079248 heartbeat IPC: 1.41971 cumulative IPC: 1.4091 (Simulation time: 0 hr 45 min 20 sec) 
*** Reached end of trace: /home/isaachywong/champsim-pt/ipc1_public/server_029.champsimtrace.xz
Heartbeat CPU 0 instructions: 90000000 cycles: 39075267 heartbeat IPC: 1.42938 cumulative IPC: 1.41411 (Simulation time: 0 hr 51 min 43 sec) 
Heartbeat CPU 0 instructions: 100000004 cycles: 46012388 heartbeat IPC: 1.44152 cumulative IPC: 1.41951 (Simulation time: 0 hr 58 min 2 sec) 
Finished CPU 0 instructions: 50000004 cycles: 35223380 cumulative IPC: 1.41951 (Simulation time: 0 hr 58 min 2 sec) 

ChampSim completed all CPUs

Region of Interest Statistics

CPU 0 cumulative IPC: 1.41951 instructions: 50000004 cycles: 35223380
L1D TOTAL     ACCESS:   12879584  HIT:   11417651  MISS:    1461933
L1D LOAD      ACCESS:    6761067  HIT:    5608183  MISS:    1152884
L1D RFO       ACCESS:    6118517  HIT:    5809468  MISS:     309049
L1D PREFETCH  ACCESS:          0  HIT:          0  MISS:          0
L1D WRITEBACK ACCESS:          0  HIT:          0  MISS:          0
L1D PREFETCH  REQUESTED:          0  ISSUED:          0  USEFUL:          0  USELESS:          0
L1D AVERAGE MISS LATENCY: 17.4056 cycles
L1I TOTAL     ACCESS:   17780265  HIT:   14810418  MISS:    2969847
L1I LOAD      ACCESS:    5586672  HIT:    4110735  MISS:    1475937
L1I RFO       ACCESS:          0  HIT:          0  MISS:          0
L1I PREFETCH  ACCESS:   12193593  HIT:   10699683  MISS:    1493910
L1I WRITEBACK ACCESS:          0  HIT:          0  MISS:          0
L1I PREFETCH  REQUESTED:   18040758  ISSUED:   18040758  USEFUL:    1449896  USELESS:      44048
L1I AVERAGE MISS LATENCY: 8.77666 cycles
L2C TOTAL     ACCESS:    5024467  HIT:    4522248  MISS:     502219
L2C LOAD      ACCESS:    1771372  HIT:    1546047  MISS:     225325
L2C RFO       ACCESS:     309047  HIT:     268293  MISS:      40754
L2C PREFETCH  ACCESS:    2351358  HIT:    2120250  MISS:     231108
L2C WRITEBACK ACCESS:     592690  HIT:     587658  MISS:       5032
L2C PREFETCH  REQUESTED:          0  ISSUED:          0  USEFUL:      85475  USELESS:     145619
L2C AVERAGE MISS LATENCY: 30.1923 cycles
LLC TOTAL     ACCESS:     576684  HIT:     542223  MISS:      34461
LLC LOAD      ACCESS:     225324  HIT:     195879  MISS:      29445
LLC RFO       ACCESS:      40742  HIT:      37266  MISS:       3476
LLC PREFETCH  ACCESS:     231108  HIT:     229822  MISS:       1286
LLC WRITEBACK ACCESS:      79510  HIT:      79256  MISS:        254
LLC PREFETCH  REQUESTED:          0  ISSUED:          0  USEFUL:        285  USELESS:       1116
LLC AVERAGE MISS LATENCY: 151.463 cycles
CPU 0 L1I FDIP final stats

DRAM Statistics
 CHANNEL 0
 RQ ROW_BUFFER_HIT:       8699  ROW_BUFFER_MISS:      25487
 DBUS_CONGESTED:       7145
 WQ ROW_BUFFER_HIT:        309  ROW_BUFFER_MISS:       3086  FULL:          0

 AVG_CONGESTED_CYCLE: 6

CPU 0 Branch Prediction Accuracy: 96.0766% MPKI: 7.38634 Average ROB Occupancy at Mispredict: 169.576
Branch type MPKI
BRANCH_DIRECT_JUMP: 0.25032
BRANCH_INDIRECT: 0.3223
BRANCH_CONDITIONAL: 5.55528
BRANCH_DIRECT_CALL: 0.56846
BRANCH_INDIRECT_CALL: 0.4202
BRANCH_RETURN: 0.26978

