
VirtualMemory physical capacity: 8589934592 num_ppages: 2097152
VirtualMemory page size: 4096 log2_page_size: 12
VirtualMemory initalizing ppage free list ... done
VirtualMemory shuffling ppage free list ... done

 (TAGE 463917)  (LOOP 1248)  (SC 58190)  (TOTAL 523355 bits 511 Kbits)  (TOTAL 523355 bits 511 Kbits) 
*** ChampSim Multicore Out-of-Order Simulator ***

Warmup Instructions: 50000000
Simulation Instructions: 50000000
Number of CPUs: 1
LLC sets: 2048
LLC ways: 16
Off-chip DRAM Size: 4096 MB Channels: 1 Width: 64-bit Data Rate: 3200 MT/s

CPU 0 runs /home/isaachywong/champsim-pt/ipc1_public/client_004.champsimtrace.xz
CPU 0 Tage branch predictor
CPU 0 L1I FDIP
Basic BTB sets: 2048 ways: 4 indirect buffer size: 4096 RAS size: 32
Comparison between count clear with upper bound and opt
Heartbeat CPU 0 instructions: 10000003 cycles: 2515268 heartbeat IPC: 3.97572 cumulative IPC: 3.97572 (Simulation time: 0 hr 8 min 30 sec) 
Heartbeat CPU 0 instructions: 20000001 cycles: 4939263 heartbeat IPC: 4.12542 cumulative IPC: 4.04919 (Simulation time: 0 hr 13 min 52 sec) 
Heartbeat CPU 0 instructions: 30000004 cycles: 7406731 heartbeat IPC: 4.05274 cumulative IPC: 4.05037 (Simulation time: 0 hr 20 min 50 sec) 
Heartbeat CPU 0 instructions: 40000000 cycles: 9951776 heartbeat IPC: 3.9292 cumulative IPC: 4.01938 (Simulation time: 0 hr 27 min 8 sec) 
Heartbeat CPU 0 instructions: 50000002 cycles: 12378439 heartbeat IPC: 4.12089 cumulative IPC: 4.03928 (Simulation time: 0 hr 34 min 44 sec) 

Warmup complete CPU 0 instructions: 50000002 cycles: 12378439 (Simulation time: 0 hr 34 min 44 sec) 

Heartbeat CPU 0 instructions: 60000004 cycles: 19269801 heartbeat IPC: 1.45109 cumulative IPC: 1.45109 (Simulation time: 0 hr 39 min 28 sec) 
Heartbeat CPU 0 instructions: 70000003 cycles: 26361447 heartbeat IPC: 1.41011 cumulative IPC: 1.43031 (Simulation time: 0 hr 43 min 53 sec) 
Heartbeat CPU 0 instructions: 80000003 cycles: 34037776 heartbeat IPC: 1.30271 cumulative IPC: 1.38508 (Simulation time: 0 hr 48 min 48 sec) 
Heartbeat CPU 0 instructions: 90000002 cycles: 40963438 heartbeat IPC: 1.44391 cumulative IPC: 1.39934 (Simulation time: 0 hr 53 min 37 sec) 
Heartbeat CPU 0 instructions: 100000004 cycles: 48007724 heartbeat IPC: 1.41959 cumulative IPC: 1.40334 (Simulation time: 0 hr 58 min 35 sec) 
Finished CPU 0 instructions: 50000002 cycles: 35629285 cumulative IPC: 1.40334 (Simulation time: 0 hr 58 min 35 sec) 

ChampSim completed all CPUs

Region of Interest Statistics

CPU 0 cumulative IPC: 1.40334 instructions: 50000002 cycles: 35629285
L1D TOTAL     ACCESS:   12459742  HIT:   11931631  MISS:     528111
L1D LOAD      ACCESS:    7687174  HIT:    7288340  MISS:     398834
L1D RFO       ACCESS:    4772568  HIT:    4643291  MISS:     129277
L1D PREFETCH  ACCESS:          0  HIT:          0  MISS:          0
L1D WRITEBACK ACCESS:          0  HIT:          0  MISS:          0
L1D PREFETCH  REQUESTED:          0  ISSUED:          0  USEFUL:          0  USELESS:          0
L1D AVERAGE MISS LATENCY: 30.7482 cycles
L1I TOTAL     ACCESS:   13699456  HIT:   13169426  MISS:     530030
L1I LOAD      ACCESS:    3162967  HIT:    2897034  MISS:     265933
L1I RFO       ACCESS:          0  HIT:          0  MISS:          0
L1I PREFETCH  ACCESS:   10536489  HIT:   10272392  MISS:     264097
L1I WRITEBACK ACCESS:          0  HIT:          0  MISS:          0
L1I PREFETCH  REQUESTED:   14882095  ISSUED:   14881904  USEFUL:     252331  USELESS:      11787
L1I AVERAGE MISS LATENCY: 16.9218 cycles
L2C TOTAL     ACCESS:    1249834  HIT:    1002711  MISS:     247123
L2C LOAD      ACCESS:     502718  HIT:     414422  MISS:      88296
L2C RFO       ACCESS:     129267  HIT:      46584  MISS:      82683
L2C PREFETCH  ACCESS:     426092  HIT:     350613  MISS:      75479
L2C WRITEBACK ACCESS:     191757  HIT:     191092  MISS:        665
L2C PREFETCH  REQUESTED:          0  ISSUED:          0  USEFUL:      36189  USELESS:      39347
L2C AVERAGE MISS LATENCY: 74.3426 cycles
LLC TOTAL     ACCESS:     341385  HIT:     251324  MISS:      90061
LLC LOAD      ACCESS:      88295  HIT:      59111  MISS:      29184
LLC RFO       ACCESS:      82683  HIT:      45824  MISS:      36859
LLC PREFETCH  ACCESS:      75479  HIT:      51516  MISS:      23963
LLC WRITEBACK ACCESS:      94928  HIT:      94873  MISS:         55
LLC PREFETCH  REQUESTED:          0  ISSUED:          0  USEFUL:      12540  USELESS:      11184
LLC AVERAGE MISS LATENCY: 149.257 cycles
CPU 0 L1I FDIP final stats

DRAM Statistics
 CHANNEL 0
 RQ ROW_BUFFER_HIT:      18469  ROW_BUFFER_MISS:      71504
 DBUS_CONGESTED:      36475
 WQ ROW_BUFFER_HIT:       8356  ROW_BUFFER_MISS:      24598  FULL:          0

 AVG_CONGESTED_CYCLE: 6

CPU 0 Branch Prediction Accuracy: 94.4036% MPKI: 11.0571 Average ROB Occupancy at Mispredict: 156.968
Branch type MPKI
BRANCH_DIRECT_JUMP: 0.5406
BRANCH_INDIRECT: 0.98636
BRANCH_CONDITIONAL: 5.79448
BRANCH_DIRECT_CALL: 0.85878
BRANCH_INDIRECT_CALL: 2.66182
BRANCH_RETURN: 0.21502

Opt choices: 32061 Not opt choices: 191566 Should not evict: 24145
Difference counter: 
0 14985
1 4553
2 5504
3 9456
4 13496
5 32210
6 111362
Rank counter: 
0 14985
1 173421
2 2701
3 459
Access pattern: 
BRANCH_NOT_BRANCH access again: 0 not access again: 0
BRANCH_DIRECT_JUMP access again: 21927 not access again: 26691
BRANCH_INDIRECT access again: 0 not access again: 0
BRANCH_CONDITIONAL access again: 62864 not access again: 56201
BRANCH_DIRECT_CALL access again: 31345 not access again: 48744
BRANCH_INDIRECT_CALL access again: 0 not access again: 0
BRANCH_RETURN access again: 0 not access again: 0
BRANCH_OTHER access again: 0 not access again: 0
