
VirtualMemory physical capacity: 8589934592 num_ppages: 2097152
VirtualMemory page size: 4096 log2_page_size: 12
VirtualMemory initalizing ppage free list ... done
VirtualMemory shuffling ppage free list ... done

 (TAGE 463917)  (LOOP 1248)  (SC 58190)  (TOTAL 523355 bits 511 Kbits)  (TOTAL 523355 bits 511 Kbits) 
*** ChampSim Multicore Out-of-Order Simulator ***

Warmup Instructions: 50000000
Simulation Instructions: 50000000
Number of CPUs: 1
LLC sets: 2048
LLC ways: 16
Off-chip DRAM Size: 4096 MB Channels: 1 Width: 64-bit Data Rate: 3200 MT/s

CPU 0 runs /home/isaachywong/champsim-pt/ipc1_public/client_003.champsimtrace.xz
CPU 0 Tage branch predictor
CPU 0 L1I FDIP
Basic BTB sets: 2048 ways: 4 indirect buffer size: 4096 RAS size: 32
Comparison between count clear with upper bound and opt
Heartbeat CPU 0 instructions: 10000001 cycles: 2152742 heartbeat IPC: 4.64524 cumulative IPC: 4.64524 (Simulation time: 0 hr 4 min 0 sec) 
Heartbeat CPU 0 instructions: 20000004 cycles: 4343851 heartbeat IPC: 4.5639 cumulative IPC: 4.60421 (Simulation time: 0 hr 8 min 12 sec) 
Heartbeat CPU 0 instructions: 30000004 cycles: 6505478 heartbeat IPC: 4.62614 cumulative IPC: 4.6115 (Simulation time: 0 hr 12 min 15 sec) 
Heartbeat CPU 0 instructions: 40000000 cycles: 8675486 heartbeat IPC: 4.60828 cumulative IPC: 4.61069 (Simulation time: 0 hr 16 min 18 sec) 
Heartbeat CPU 0 instructions: 50000003 cycles: 10838212 heartbeat IPC: 4.6238 cumulative IPC: 4.61331 (Simulation time: 0 hr 20 min 13 sec) 

Warmup complete CPU 0 instructions: 50000003 cycles: 10838212 (Simulation time: 0 hr 20 min 13 sec) 

Heartbeat CPU 0 instructions: 60000003 cycles: 16757109 heartbeat IPC: 1.6895 cumulative IPC: 1.6895 (Simulation time: 0 hr 26 min 7 sec) 
Heartbeat CPU 0 instructions: 70000001 cycles: 22518918 heartbeat IPC: 1.73557 cumulative IPC: 1.71223 (Simulation time: 0 hr 32 min 18 sec) 
Heartbeat CPU 0 instructions: 80000003 cycles: 28981273 heartbeat IPC: 1.54742 cumulative IPC: 1.65352 (Simulation time: 0 hr 38 min 35 sec) 
Heartbeat CPU 0 instructions: 90000000 cycles: 43420827 heartbeat IPC: 0.692542 cumulative IPC: 1.22765 (Simulation time: 0 hr 51 min 25 sec) 
Heartbeat CPU 0 instructions: 100000000 cycles: 56428617 heartbeat IPC: 0.76877 cumulative IPC: 1.09672 (Simulation time: 1 hr 4 min 38 sec) 
Finished CPU 0 instructions: 50000002 cycles: 45590406 cumulative IPC: 1.09672 (Simulation time: 1 hr 4 min 38 sec) 

ChampSim completed all CPUs

Region of Interest Statistics

CPU 0 cumulative IPC: 1.09672 instructions: 50000002 cycles: 45590406
L1D TOTAL     ACCESS:   11377401  HIT:   10970065  MISS:     407336
L1D LOAD      ACCESS:    5416044  HIT:    5247821  MISS:     168223
L1D RFO       ACCESS:    5961357  HIT:    5722244  MISS:     239113
L1D PREFETCH  ACCESS:          0  HIT:          0  MISS:          0
L1D WRITEBACK ACCESS:          0  HIT:          0  MISS:          0
L1D PREFETCH  REQUESTED:          0  ISSUED:          0  USEFUL:          0  USELESS:          0
L1D AVERAGE MISS LATENCY: 178.937 cycles
L1I TOTAL     ACCESS:   16779878  HIT:   16349321  MISS:     430557
L1I LOAD      ACCESS:    4104859  HIT:    3863108  MISS:     241751
L1I RFO       ACCESS:          0  HIT:          0  MISS:          0
L1I PREFETCH  ACCESS:   12675019  HIT:   12486213  MISS:     188806
L1I WRITEBACK ACCESS:          0  HIT:          0  MISS:          0
L1I PREFETCH  REQUESTED:   17404368  ISSUED:   17403803  USEFUL:     178472  USELESS:      10362
L1I AVERAGE MISS LATENCY: 12.74 cycles
L2C TOTAL     ACCESS:    1099336  HIT:     735523  MISS:     363813
L2C LOAD      ACCESS:     287076  HIT:     173168  MISS:     113908
L2C RFO       ACCESS:     239107  HIT:      27066  MISS:     212041
L2C PREFETCH  ACCESS:     311699  HIT:     274822  MISS:      36877
L2C WRITEBACK ACCESS:     261454  HIT:     260467  MISS:        987
L2C PREFETCH  REQUESTED:          0  ISSUED:          0  USEFUL:      21257  USELESS:      16053
L2C AVERAGE MISS LATENCY: 198.683 cycles
LLC TOTAL     ACCESS:     583116  HIT:     319227  MISS:     263889
LLC LOAD      ACCESS:     113907  HIT:      36147  MISS:      77760
LLC RFO       ACCESS:     212039  HIT:      38178  MISS:     173861
LLC PREFETCH  ACCESS:      36877  HIT:      24922  MISS:      11955
LLC WRITEBACK ACCESS:     220293  HIT:     219980  MISS:        313
LLC PREFETCH  REQUESTED:          0  ISSUED:          0  USEFUL:       4274  USELESS:       8277
LLC AVERAGE MISS LATENCY: 246.417 cycles
CPU 0 L1I FDIP final stats

DRAM Statistics
 CHANNEL 0
 RQ ROW_BUFFER_HIT:      78145  ROW_BUFFER_MISS:     185425
 DBUS_CONGESTED:     233419
 WQ ROW_BUFFER_HIT:      70113  ROW_BUFFER_MISS:     103941  FULL:          0

 AVG_CONGESTED_CYCLE: 6

CPU 0 Branch Prediction Accuracy: 98.5147% MPKI: 2.96502 Average ROB Occupancy at Mispredict: 180.982
Branch type MPKI
BRANCH_DIRECT_JUMP: 0.11204
BRANCH_INDIRECT: 0.50808
BRANCH_CONDITIONAL: 1.5722
BRANCH_DIRECT_CALL: 0.23312
BRANCH_INDIRECT_CALL: 0.33032
BRANCH_RETURN: 0.20926

Opt choices: 10475 Not opt choices: 59681 Should not evict: 10604
Difference counter: 
0 4752
1 1778
2 1850
3 2741
4 3314
5 8654
6 36592
Rank counter: 
0 4752
1 51991
2 2400
3 538
Access pattern: 
BRANCH_NOT_BRANCH access again: 0 not access again: 0
BRANCH_DIRECT_JUMP access again: 5986 not access again: 7854
BRANCH_INDIRECT access again: 0 not access again: 0
BRANCH_CONDITIONAL access again: 18173 not access again: 18392
BRANCH_DIRECT_CALL access again: 11091 not access again: 19264
BRANCH_INDIRECT_CALL access again: 0 not access again: 0
BRANCH_RETURN access again: 0 not access again: 0
BRANCH_OTHER access again: 0 not access again: 0
