
VirtualMemory physical capacity: 8589934592 num_ppages: 2097152
VirtualMemory page size: 4096 log2_page_size: 12
VirtualMemory initalizing ppage free list ... done
VirtualMemory shuffling ppage free list ... done

 (TAGE 463917)  (LOOP 1248)  (SC 58190)  (TOTAL 523355 bits 511 Kbits)  (TOTAL 523355 bits 511 Kbits) 
*** ChampSim Multicore Out-of-Order Simulator ***

Warmup Instructions: 50000000
Simulation Instructions: 50000000
Number of CPUs: 1
LLC sets: 2048
LLC ways: 16
Off-chip DRAM Size: 4096 MB Channels: 1 Width: 64-bit Data Rate: 3200 MT/s

CPU 0 runs /home/isaachywong/champsim-pt/ipc1_public/server_016.champsimtrace.xz
CPU 0 Tage branch predictor
CPU 0 L1I FDIP
Basic BTB sets: 2048 ways: 4 indirect buffer size: 4096 RAS size: 32
Comparison between count clear with upper bound and opt
Heartbeat CPU 0 instructions: 10000001 cycles: 2162888 heartbeat IPC: 4.62345 cumulative IPC: 4.62345 (Simulation time: 0 hr 5 min 15 sec) 
Heartbeat CPU 0 instructions: 20000002 cycles: 4327032 heartbeat IPC: 4.62077 cumulative IPC: 4.62211 (Simulation time: 0 hr 10 min 20 sec) 
Heartbeat CPU 0 instructions: 30000002 cycles: 6483369 heartbeat IPC: 4.63749 cumulative IPC: 4.62722 (Simulation time: 0 hr 15 min 24 sec) 
Heartbeat CPU 0 instructions: 40000003 cycles: 8526764 heartbeat IPC: 4.89382 cumulative IPC: 4.69111 (Simulation time: 0 hr 19 min 35 sec) 
Heartbeat CPU 0 instructions: 50000003 cycles: 10526764 heartbeat IPC: 5 cumulative IPC: 4.7498 (Simulation time: 0 hr 23 min 27 sec) 

Warmup complete CPU 0 instructions: 50000003 cycles: 10526764 (Simulation time: 0 hr 23 min 27 sec) 

Heartbeat CPU 0 instructions: 60000004 cycles: 13292838 heartbeat IPC: 3.61523 cumulative IPC: 3.61523 (Simulation time: 0 hr 28 min 1 sec) 
Heartbeat CPU 0 instructions: 70000000 cycles: 19459144 heartbeat IPC: 1.62172 cumulative IPC: 2.23904 (Simulation time: 0 hr 35 min 37 sec) 
Heartbeat CPU 0 instructions: 80000000 cycles: 25741990 heartbeat IPC: 1.59164 cumulative IPC: 1.97171 (Simulation time: 0 hr 43 min 21 sec) 
Heartbeat CPU 0 instructions: 90000001 cycles: 31799791 heartbeat IPC: 1.65076 cumulative IPC: 1.88032 (Simulation time: 0 hr 50 min 55 sec) 
Heartbeat CPU 0 instructions: 100000002 cycles: 38000505 heartbeat IPC: 1.61272 cumulative IPC: 1.81992 (Simulation time: 0 hr 58 min 37 sec) 
Finished CPU 0 instructions: 50000000 cycles: 27473743 cumulative IPC: 1.81992 (Simulation time: 0 hr 58 min 37 sec) 

ChampSim completed all CPUs

Region of Interest Statistics

CPU 0 cumulative IPC: 1.81992 instructions: 50000000 cycles: 27473743
L1D TOTAL     ACCESS:   11565563  HIT:   10737078  MISS:     828485
L1D LOAD      ACCESS:    6361459  HIT:    5759053  MISS:     602406
L1D RFO       ACCESS:    5204104  HIT:    4978025  MISS:     226079
L1D PREFETCH  ACCESS:          0  HIT:          0  MISS:          0
L1D WRITEBACK ACCESS:          0  HIT:          0  MISS:          0
L1D PREFETCH  REQUESTED:          0  ISSUED:          0  USEFUL:          0  USELESS:          0
L1D AVERAGE MISS LATENCY: 20.4399 cycles
L1I TOTAL     ACCESS:   17806957  HIT:   15582630  MISS:    2224327
L1I LOAD      ACCESS:    4790019  HIT:    3658524  MISS:    1131495
L1I RFO       ACCESS:          0  HIT:          0  MISS:          0
L1I PREFETCH  ACCESS:   13016938  HIT:   11924106  MISS:    1092832
L1I WRITEBACK ACCESS:          0  HIT:          0  MISS:          0
L1I PREFETCH  REQUESTED:   19101000  ISSUED:   19100844  USEFUL:    1001576  USELESS:      91290
L1I AVERAGE MISS LATENCY: 9.61641 cycles
L2C TOTAL     ACCESS:    3438793  HIT:    3032192  MISS:     406601
L2C LOAD      ACCESS:    1181684  HIT:    1015187  MISS:     166497
L2C RFO       ACCESS:     225968  HIT:     172547  MISS:      53421
L2C PREFETCH  ACCESS:    1644860  HIT:    1464068  MISS:     180792
L2C WRITEBACK ACCESS:     386281  HIT:     380390  MISS:       5891
L2C PREFETCH  REQUESTED:          0  ISSUED:          0  USEFUL:      93959  USELESS:      86622
L2C AVERAGE MISS LATENCY: 31.1371 cycles
LLC TOTAL     ACCESS:     482888  HIT:     457978  MISS:      24910
LLC LOAD      ACCESS:     166493  HIT:     156765  MISS:       9728
LLC RFO       ACCESS:      53420  HIT:      39271  MISS:      14149
LLC PREFETCH  ACCESS:     180792  HIT:     179836  MISS:        956
LLC WRITEBACK ACCESS:      82183  HIT:      82106  MISS:         77
LLC PREFETCH  REQUESTED:          0  ISSUED:          0  USEFUL:        395  USELESS:       1347
LLC AVERAGE MISS LATENCY: 186.508 cycles
CPU 0 L1I FDIP final stats

DRAM Statistics
 CHANNEL 0
 RQ ROW_BUFFER_HIT:       8650  ROW_BUFFER_MISS:      16182
 DBUS_CONGESTED:      17273
 WQ ROW_BUFFER_HIT:       1088  ROW_BUFFER_MISS:      12205  FULL:          0

 AVG_CONGESTED_CYCLE: 6

CPU 0 Branch Prediction Accuracy: 98.4717% MPKI: 2.77428 Average ROB Occupancy at Mispredict: 227.853
Branch type MPKI
BRANCH_DIRECT_JUMP: 0.28492
BRANCH_INDIRECT: 0.34456
BRANCH_CONDITIONAL: 1.089
BRANCH_DIRECT_CALL: 0.5726
BRANCH_INDIRECT_CALL: 0.36648
BRANCH_RETURN: 0.11672

Opt choices: 18134 Not opt choices: 58764 Should not evict: 65832
Difference counter: 
0 701
1 354
2 342
3 462
4 1613
5 5300
6 49992
Rank counter: 
0 701
1 56810
2 1228
3 25
Access pattern: 
BRANCH_NOT_BRANCH access again: 0 not access again: 0
BRANCH_DIRECT_JUMP access again: 3487 not access again: 20726
BRANCH_INDIRECT access again: 0 not access again: 0
BRANCH_CONDITIONAL access again: 13272 not access again: 56020
BRANCH_DIRECT_CALL access again: 6530 not access again: 42695
BRANCH_INDIRECT_CALL access again: 0 not access again: 0
BRANCH_RETURN access again: 0 not access again: 0
BRANCH_OTHER access again: 0 not access again: 0
