
VirtualMemory physical capacity: 8589934592 num_ppages: 2097152
VirtualMemory page size: 4096 log2_page_size: 12
VirtualMemory initalizing ppage free list ... done
VirtualMemory shuffling ppage free list ... done

 (TAGE 463917)  (LOOP 1248)  (SC 58190)  (TOTAL 523355 bits 511 Kbits)  (TOTAL 523355 bits 511 Kbits) 
*** ChampSim Multicore Out-of-Order Simulator ***

Warmup Instructions: 50000000
Simulation Instructions: 50000000
Number of CPUs: 1
LLC sets: 2048
LLC ways: 16
Off-chip DRAM Size: 4096 MB Channels: 1 Width: 64-bit Data Rate: 3200 MT/s

CPU 0 runs /home/isaachywong/champsim-pt/ipc1_public/server_024.champsimtrace.xz
CPU 0 Tage branch predictor
CPU 0 L1I FDIP
Basic BTB sets: 2048 ways: 4 indirect buffer size: 4096 RAS size: 32
Comparison between count clear with upper bound and opt
Heartbeat CPU 0 instructions: 10000004 cycles: 2162932 heartbeat IPC: 4.62336 cumulative IPC: 4.62336 (Simulation time: 0 hr 5 min 15 sec) 
Heartbeat CPU 0 instructions: 20000004 cycles: 4318657 heartbeat IPC: 4.63881 cumulative IPC: 4.63107 (Simulation time: 0 hr 10 min 19 sec) 
Heartbeat CPU 0 instructions: 30000002 cycles: 6483725 heartbeat IPC: 4.61879 cumulative IPC: 4.62697 (Simulation time: 0 hr 15 min 26 sec) 
Heartbeat CPU 0 instructions: 40000002 cycles: 8648303 heartbeat IPC: 4.61984 cumulative IPC: 4.62519 (Simulation time: 0 hr 20 min 31 sec) 
Heartbeat CPU 0 instructions: 50000002 cycles: 10803404 heartbeat IPC: 4.64015 cumulative IPC: 4.62817 (Simulation time: 0 hr 25 min 32 sec) 

Warmup complete CPU 0 instructions: 50000002 cycles: 10803404 (Simulation time: 0 hr 25 min 32 sec) 

Heartbeat CPU 0 instructions: 60000000 cycles: 16983017 heartbeat IPC: 1.61822 cumulative IPC: 1.61822 (Simulation time: 0 hr 33 min 18 sec) 
Heartbeat CPU 0 instructions: 70000000 cycles: 23198135 heartbeat IPC: 1.60898 cumulative IPC: 1.61359 (Simulation time: 0 hr 41 min 7 sec) 
*** Reached end of trace: /home/isaachywong/champsim-pt/ipc1_public/server_024.champsimtrace.xz
Heartbeat CPU 0 instructions: 80000002 cycles: 29417292 heartbeat IPC: 1.60794 cumulative IPC: 1.6117 (Simulation time: 0 hr 48 min 51 sec) 
Heartbeat CPU 0 instructions: 90000004 cycles: 35754051 heartbeat IPC: 1.57809 cumulative IPC: 1.60316 (Simulation time: 0 hr 56 min 41 sec) 
Heartbeat CPU 0 instructions: 100000004 cycles: 42017047 heartbeat IPC: 1.59668 cumulative IPC: 1.60186 (Simulation time: 1 hr 4 min 30 sec) 
Finished CPU 0 instructions: 50000002 cycles: 31213643 cumulative IPC: 1.60186 (Simulation time: 1 hr 4 min 30 sec) 

ChampSim completed all CPUs

Region of Interest Statistics

CPU 0 cumulative IPC: 1.60186 instructions: 50000002 cycles: 31213643
L1D TOTAL     ACCESS:   12919769  HIT:   11929966  MISS:     989803
L1D LOAD      ACCESS:    6749477  HIT:    6038072  MISS:     711405
L1D RFO       ACCESS:    6170292  HIT:    5891894  MISS:     278398
L1D PREFETCH  ACCESS:          0  HIT:          0  MISS:          0
L1D WRITEBACK ACCESS:          0  HIT:          0  MISS:          0
L1D PREFETCH  REQUESTED:          0  ISSUED:          0  USEFUL:          0  USELESS:          0
L1D AVERAGE MISS LATENCY: 24.5645 cycles
L1I TOTAL     ACCESS:   20566202  HIT:   17884936  MISS:    2681266
L1I LOAD      ACCESS:    5596079  HIT:    4213212  MISS:    1382867
L1I RFO       ACCESS:          0  HIT:          0  MISS:          0
L1I PREFETCH  ACCESS:   14970123  HIT:   13671724  MISS:    1298399
L1I WRITEBACK ACCESS:          0  HIT:          0  MISS:          0
L1I PREFETCH  REQUESTED:   21259912  ISSUED:   21259841  USEFUL:    1176193  USELESS:     122217
L1I AVERAGE MISS LATENCY: 9.613 cycles
L2C TOTAL     ACCESS:    4137557  HIT:    3644869  MISS:     492688
L2C LOAD      ACCESS:    1443667  HIT:    1242035  MISS:     201632
L2C RFO       ACCESS:     278259  HIT:     199319  MISS:      78940
L2C PREFETCH  ACCESS:    1948772  HIT:    1746177  MISS:     202595
L2C WRITEBACK ACCESS:     466859  HIT:     457338  MISS:       9521
L2C PREFETCH  REQUESTED:          0  ISSUED:          0  USEFUL:     112291  USELESS:      90128
L2C AVERAGE MISS LATENCY: 38.428 cycles
LLC TOTAL     ACCESS:     598229  HIT:     560719  MISS:      37510
LLC LOAD      ACCESS:     201632  HIT:     188151  MISS:      13481
LLC RFO       ACCESS:      78928  HIT:      56292  MISS:      22636
LLC PREFETCH  ACCESS:     202595  HIT:     201368  MISS:       1227
LLC WRITEBACK ACCESS:     115074  HIT:     114908  MISS:        166
LLC PREFETCH  REQUESTED:          0  ISSUED:          0  USEFUL:        571  USELESS:        798
LLC AVERAGE MISS LATENCY: 247.117 cycles
CPU 0 L1I FDIP final stats

DRAM Statistics
 CHANNEL 0
 RQ ROW_BUFFER_HIT:      12058  ROW_BUFFER_MISS:      25283
 DBUS_CONGESTED:      31099
 WQ ROW_BUFFER_HIT:       2151  ROW_BUFFER_MISS:      21880  FULL:          0

 AVG_CONGESTED_CYCLE: 6

CPU 0 Branch Prediction Accuracy: 98.2149% MPKI: 3.2653 Average ROB Occupancy at Mispredict: 223.896
Branch type MPKI
BRANCH_DIRECT_JUMP: 0.31854
BRANCH_INDIRECT: 0.4314
BRANCH_CONDITIONAL: 1.20536
BRANCH_DIRECT_CALL: 0.73626
BRANCH_INDIRECT_CALL: 0.44476
BRANCH_RETURN: 0.12898

Opt choices: 23761 Not opt choices: 73088 Should not evict: 92965
Difference counter: 
0 1450
1 250
2 363
3 576
4 1698
5 6115
6 62636
Rank counter: 
0 1450
1 69551
2 2068
3 19
Access pattern: 
BRANCH_NOT_BRANCH access again: 0 not access again: 0
BRANCH_DIRECT_JUMP access again: 2731 not access again: 26492
BRANCH_INDIRECT access again: 0 not access again: 0
BRANCH_CONDITIONAL access again: 18853 not access again: 69484
BRANCH_DIRECT_CALL access again: 8888 not access again: 63366
BRANCH_INDIRECT_CALL access again: 0 not access again: 0
BRANCH_RETURN access again: 0 not access again: 0
BRANCH_OTHER access again: 0 not access again: 0
