
VirtualMemory physical capacity: 8589934592 num_ppages: 2097152
VirtualMemory page size: 4096 log2_page_size: 12
VirtualMemory initalizing ppage free list ... done
VirtualMemory shuffling ppage free list ... done

 (TOTAL 523355 bits 511 Kbits) 
*** ChampSim Multicore Out-of-Order Simulator ***

Warmup Instructions: 50000000
Simulation Instructions: 50000000
Number of CPUs: 1
LLC sets: 2048
LLC ways: 16
Off-chip DRAM Size: 4096 MB Channels: 1 Width: 64-bit Data Rate: 3200 MT/s

CPU 0 runs /home/isaachywong/champsim-pt/ipc1_public/client_008.champsimtrace.xz
CPU 0 Tage branch predictor
CPU 0 L1I FDIP
Basic BTB sets: 2048 ways: 4 indirect buffer size: 4096 RAS size: 32
Error: cannot find the corresponding timestamp!
Error: cannot find the corresponding timestamp!
Error: cannot find the corresponding timestamp!
Error: cannot find the corresponding timestamp!
Error: cannot find the corresponding timestamp!
Error: cannot find the corresponding timestamp!
Error: cannot find the corresponding timestamp!
Error: cannot find the corresponding timestamp!
Error: cannot find the corresponding timestamp!
Error: cannot find the corresponding timestamp!
Error: cannot find the corresponding timestamp!
Error: cannot find the corresponding timestamp!
Error: cannot find the corresponding timestamp!
Error: cannot find the corresponding timestamp!
Error: cannot find the corresponding timestamp!
Error: cannot find the corresponding timestamp!
Error: cannot find the corresponding timestamp!
Error: cannot find the corresponding timestamp!
Error: cannot find the corresponding timestamp!
Error: cannot find the corresponding timestamp!
Error: cannot find the corresponding timestamp!
Error: cannot find the corresponding timestamp!
Error: cannot find the corresponding timestamp!
Error: cannot find the corresponding timestamp!
Error: cannot find the corresponding timestamp!
Error: cannot find the corresponding timestamp!
Error: cannot find the corresponding timestamp!
Error: cannot find the corresponding timestamp!
Error: cannot find the corresponding timestamp!
Error: cannot find the corresponding timestamp!
Error: cannot find the corresponding timestamp!
Error: cannot find the corresponding timestamp!
Error: cannot find the corresponding timestamp!
Error: cannot find the corresponding timestamp!
Error: cannot find the corresponding timestamp!
Error: cannot find the corresponding timestamp!
Error: cannot find the corresponding timestamp!
Error: cannot find the corresponding timestamp!
Heartbeat CPU 0 instructions: 10000004 cycles: 2739567 heartbeat IPC: 3.65021 cumulative IPC: 3.65021 (Simulation time: 0 hr 8 min 6 sec) 
Error: cannot find the corresponding timestamp!
Error: cannot find the corresponding timestamp!
Error: cannot find the corresponding timestamp!
Error: cannot find the corresponding timestamp!
Error: cannot find the corresponding timestamp!
Error: cannot find the corresponding timestamp!
Error: cannot find the corresponding timestamp!
Error: cannot find the corresponding timestamp!
Error: cannot find the corresponding timestamp!
Error: cannot find the corresponding timestamp!
Error: cannot find the corresponding timestamp!
Error: cannot find the corresponding timestamp!
Error: cannot find the corresponding timestamp!
Error: cannot find the corresponding timestamp!
Error: cannot find the corresponding timestamp!
Error: cannot find the corresponding timestamp!
Error: cannot find the corresponding timestamp!
Error: cannot find the corresponding timestamp!
Error: cannot find the corresponding timestamp!
Error: cannot find the corresponding timestamp!
Error: cannot find the corresponding timestamp!
Error: cannot find the corresponding timestamp!
Error: cannot find the corresponding timestamp!
Error: cannot find the corresponding timestamp!
Error: cannot find the corresponding timestamp!
Error: cannot find the corresponding timestamp!
Error: cannot find the corresponding timestamp!
Error: cannot find the corresponding timestamp!
Error: cannot find the corresponding timestamp!
Error: cannot find the corresponding timestamp!
Error: cannot find the corresponding timestamp!
Error: cannot find the corresponding timestamp!
Error: cannot find the corresponding timestamp!
Error: cannot find the corresponding timestamp!
Error: cannot find the corresponding timestamp!
Error: cannot find the corresponding timestamp!
Error: cannot find the corresponding timestamp!
Error: cannot find the corresponding timestamp!
Error: cannot find the corresponding timestamp!
Error: cannot find the corresponding timestamp!
Error: cannot find the corresponding timestamp!
Error: cannot find the corresponding timestamp!
Error: cannot find the corresponding timestamp!
Error: cannot find the corresponding timestamp!
Error: cannot find the corresponding timestamp!
Error: cannot find the corresponding timestamp!
Error: cannot find the corresponding timestamp!
Error: cannot find the corresponding timestamp!
Error: cannot find the corresponding timestamp!
Error: cannot find the corresponding timestamp!
Error: cannot find the corresponding timestamp!
Error: cannot find the corresponding timestamp!
Error: cannot find the corresponding timestamp!
Error: cannot find the corresponding timestamp!
Error: cannot find the corresponding timestamp!
Error: cannot find the corresponding timestamp!
Error: cannot find the corresponding timestamp!
Error: cannot find the corresponding timestamp!
Error: cannot find the corresponding timestamp!
Error: cannot find the corresponding timestamp!
Error: cannot find the corresponding timestamp!
Error: cannot find the corresponding timestamp!
Error: cannot find the corresponding timestamp!
Error: cannot find the corresponding timestamp!
Error: cannot find the corresponding timestamp!
Error: cannot find the corresponding timestamp!
Error: cannot find the corresponding timestamp!
Error: cannot find the corresponding timestamp!
Error: cannot find the corresponding timestamp!
Error: cannot find the corresponding timestamp!
Error: cannot find the corresponding timestamp!
Error: cannot find the corresponding timestamp!
Error: cannot find the corresponding timestamp!
Error: cannot find the corresponding timestamp!
Error: cannot find the corresponding timestamp!
Error: cannot find the corresponding timestamp!
Error: cannot find the corresponding timestamp!
Error: cannot find the corresponding timestamp!
Error: cannot find the corresponding timestamp!
Error: cannot find the corresponding timestamp!
Error: cannot find the corresponding timestamp!
Error: cannot find the corresponding timestamp!
Error: cannot find the corresponding timestamp!
Error: cannot find the corresponding timestamp!
Error: cannot find the corresponding timestamp!
Error: cannot find the corresponding timestamp!
Error: cannot find the corresponding timestamp!
Error: cannot find the corresponding timestamp!
Error: cannot find the corresponding timestamp!
Error: cannot find the corresponding timestamp!
Error: cannot find the corresponding timestamp!
Error: cannot find the corresponding timestamp!
Error: cannot find the corresponding timestamp!
Error: cannot find the corresponding timestamp!
Error: cannot find the corresponding timestamp!
Error: cannot find the corresponding timestamp!
Error: cannot find the corresponding timestamp!
Error: cannot find the corresponding timestamp!
Error: cannot find the corresponding timestamp!
Error: cannot find the corresponding timestamp!
Error: cannot find the corresponding timestamp!
Error: cannot find the corresponding timestamp!
Error: cannot find the corresponding timestamp!
Error: cannot find the corresponding timestamp!
Error: cannot find the corresponding timestamp!
Error: cannot find the corresponding timestamp!
Error: cannot find the corresponding timestamp!
Error: cannot find the corresponding timestamp!
Error: cannot find the corresponding timestamp!
Error: cannot find the corresponding timestamp!
Error: cannot find the corresponding timestamp!
Error: cannot find the corresponding timestamp!
Error: cannot find the corresponding timestamp!
Error: cannot find the corresponding timestamp!
Error: cannot find the corresponding timestamp!
Error: cannot find the corresponding timestamp!
Error: cannot find the corresponding timestamp!
Error: cannot find the corresponding timestamp!
Error: cannot find the corresponding timestamp!
Error: cannot find the corresponding timestamp!
Error: cannot find the corresponding timestamp!
Error: cannot find the corresponding timestamp!
Error: cannot find the corresponding timestamp!
Error: cannot find the corresponding timestamp!
Error: cannot find the corresponding timestamp!
Error: cannot find the corresponding timestamp!
Error: cannot find the corresponding timestamp!
Error: cannot find the corresponding timestamp!
Error: cannot find the corresponding timestamp!
Error: cannot find the corresponding timestamp!
Error: cannot find the corresponding timestamp!
Error: cannot find the corresponding timestamp!
Error: cannot find the corresponding timestamp!
Error: cannot find the corresponding timestamp!
Error: cannot find the corresponding timestamp!
Error: cannot find the corresponding timestamp!
Error: cannot find the corresponding timestamp!
Error: cannot find the corresponding timestamp!
Error: cannot find the corresponding timestamp!
Error: cannot find the corresponding timestamp!
Error: cannot find the corresponding timestamp!
Error: cannot find the corresponding timestamp!
Error: cannot find the corresponding timestamp!
Error: cannot find the corresponding timestamp!
Error: cannot find the corresponding timestamp!
Error: cannot find the corresponding timestamp!
Error: cannot find the corresponding timestamp!
Error: cannot find the corresponding timestamp!
Error: cannot find the corresponding timestamp!
Error: cannot find the corresponding timestamp!
Error: cannot find the corresponding timestamp!
Error: cannot find the corresponding timestamp!
Error: cannot find the corresponding timestamp!
Error: cannot find the corresponding timestamp!
Error: cannot find the corresponding timestamp!
Error: cannot find the corresponding timestamp!
Error: cannot find the corresponding timestamp!
Error: cannot find the corresponding timestamp!
Error: cannot find the corresponding timestamp!
Error: cannot find the corresponding timestamp!
Error: cannot find the corresponding timestamp!
Error: cannot find the corresponding timestamp!
Error: cannot find the corresponding timestamp!
Error: cannot find the corresponding timestamp!
Error: cannot find the corresponding timestamp!
Error: cannot find the corresponding timestamp!
Error: cannot find the corresponding timestamp!
Error: cannot find the corresponding timestamp!
Error: cannot find the corresponding timestamp!
Error: cannot find the corresponding timestamp!
Error: cannot find the corresponding timestamp!
Error: cannot find the corresponding timestamp!
Error: cannot find the corresponding timestamp!
Error: cannot find the corresponding timestamp!
Error: cannot find the corresponding timestamp!
Error: cannot find the corresponding timestamp!
Error: cannot find the corresponding timestamp!
Error: cannot find the corresponding timestamp!
Error: cannot find the corresponding timestamp!
Error: cannot find the corresponding timestamp!
Error: cannot find the corresponding timestamp!
Error: cannot find the corresponding timestamp!
Error: cannot find the corresponding timestamp!
Error: cannot find the corresponding timestamp!
Error: cannot find the corresponding timestamp!
Error: cannot find the corresponding timestamp!
Error: cannot find the corresponding timestamp!
Error: cannot find the corresponding timestamp!
Error: cannot find the corresponding timestamp!
Error: cannot find the corresponding timestamp!
Error: cannot find the corresponding timestamp!
Error: cannot find the corresponding timestamp!
Error: cannot find the corresponding timestamp!
Error: cannot find the corresponding timestamp!
Error: cannot find the corresponding timestamp!
Error: cannot find the corresponding timestamp!
Error: cannot find the corresponding timestamp!
Error: cannot find the corresponding timestamp!
Error: cannot find the corresponding timestamp!
Error: cannot find the corresponding timestamp!
Error: cannot find the corresponding timestamp!
Error: cannot find the corresponding timestamp!
Error: cannot find the corresponding timestamp!
Error: cannot find the corresponding timestamp!
Error: cannot find the corresponding timestamp!
Error: cannot find the corresponding timestamp!
Error: cannot find the corresponding timestamp!
Error: cannot find the corresponding timestamp!
Error: cannot find the corresponding timestamp!
Error: cannot find the corresponding timestamp!
Error: cannot find the corresponding timestamp!
Error: cannot find the corresponding timestamp!
Error: cannot find the corresponding timestamp!
Error: cannot find the corresponding timestamp!
Error: cannot find the corresponding timestamp!
Error: cannot find the corresponding timestamp!
Error: cannot find the corresponding timestamp!
Error: cannot find the corresponding timestamp!
Error: cannot find the corresponding timestamp!
Error: cannot find the corresponding timestamp!
Error: cannot find the corresponding timestamp!
Error: cannot find the corresponding timestamp!
Error: cannot find the corresponding timestamp!
Error: cannot find the corresponding timestamp!
Error: cannot find the corresponding timestamp!
Error: cannot find the corresponding timestamp!
Error: cannot find the corresponding timestamp!
Error: cannot find the corresponding timestamp!
Error: cannot find the corresponding timestamp!
Error: cannot find the corresponding timestamp!
Error: cannot find the corresponding timestamp!
Error: cannot find the corresponding timestamp!
Error: cannot find the corresponding timestamp!
Error: cannot find the corresponding timestamp!
Error: cannot find the corresponding timestamp!
Error: cannot find the corresponding timestamp!
Error: cannot find the corresponding timestamp!
Error: cannot find the corresponding timestamp!
Error: cannot find the corresponding timestamp!
Error: cannot find the corresponding timestamp!
Error: cannot find the corresponding timestamp!
Error: cannot find the corresponding timestamp!
Error: cannot find the corresponding timestamp!
Error: cannot find the corresponding timestamp!
Error: cannot find the corresponding timestamp!
Error: cannot find the corresponding timestamp!
Error: cannot find the corresponding timestamp!
Error: cannot find the corresponding timestamp!
Error: cannot find the corresponding timestamp!
Error: cannot find the corresponding timestamp!
Error: cannot find the corresponding timestamp!
Error: cannot find the corresponding timestamp!
Error: cannot find the corresponding timestamp!
Error: cannot find the corresponding timestamp!
Error: cannot find the corresponding timestamp!
Error: cannot find the corresponding timestamp!
Error: cannot find the corresponding timestamp!
Error: cannot find the corresponding timestamp!
Error: cannot find the corresponding timestamp!
Error: cannot find the corresponding timestamp!
Error: cannot find the corresponding timestamp!
Error: cannot find the corresponding timestamp!
Error: cannot find the corresponding timestamp!
Error: cannot find the corresponding timestamp!
Error: cannot find the corresponding timestamp!
Error: cannot find the corresponding timestamp!
Error: cannot find the corresponding timestamp!
Error: cannot find the corresponding timestamp!
Error: cannot find the corresponding timestamp!
Error: cannot find the corresponding timestamp!
Error: cannot find the corresponding timestamp!
Error: cannot find the corresponding timestamp!
Error: cannot find the corresponding timestamp!
Error: cannot find the corresponding timestamp!
Error: cannot find the corresponding timestamp!
Error: cannot find the corresponding timestamp!
Error: cannot find the corresponding timestamp!
Error: cannot find the corresponding timestamp!
Error: cannot find the corresponding timestamp!
Error: cannot find the corresponding timestamp!
Error: cannot find the corresponding timestamp!
Error: cannot find the corresponding timestamp!
Error: cannot find the corresponding timestamp!
Error: cannot find the corresponding timestamp!
Error: cannot find the corresponding timestamp!
Error: cannot find the corresponding timestamp!
Error: cannot find the corresponding timestamp!
Error: cannot find the corresponding timestamp!
Error: cannot find the corresponding timestamp!
Error: cannot find the corresponding timestamp!
Error: cannot find the corresponding timestamp!
Error: cannot find the corresponding timestamp!
Error: cannot find the corresponding timestamp!
Error: cannot find the corresponding timestamp!
Error: cannot find the corresponding timestamp!
Error: cannot find the corresponding timestamp!
Error: cannot find the corresponding timestamp!
Error: cannot find the corresponding timestamp!
Error: cannot find the corresponding timestamp!
Error: cannot find the corresponding timestamp!
Error: cannot find the corresponding timestamp!
Error: cannot find the corresponding timestamp!
Error: cannot find the corresponding timestamp!
Error: cannot find the corresponding timestamp!
Error: cannot find the corresponding timestamp!
Error: cannot find the corresponding timestamp!
Error: cannot find the corresponding timestamp!
Error: cannot find the corresponding timestamp!
Error: cannot find the corresponding timestamp!
Error: cannot find the corresponding timestamp!
Error: cannot find the corresponding timestamp!
Error: cannot find the corresponding timestamp!
Error: cannot find the corresponding timestamp!
Error: cannot find the corresponding timestamp!
Error: cannot find the corresponding timestamp!
Error: cannot find the corresponding timestamp!
Error: cannot find the corresponding timestamp!
Error: cannot find the corresponding timestamp!
Error: cannot find the corresponding timestamp!
Error: cannot find the corresponding timestamp!
Error: cannot find the corresponding timestamp!
Error: cannot find the corresponding timestamp!
Error: cannot find the corresponding timestamp!
Error: cannot find the corresponding timestamp!
Error: cannot find the corresponding timestamp!
Error: cannot find the corresponding timestamp!
Error: cannot find the corresponding timestamp!
Error: cannot find the corresponding timestamp!
Error: cannot find the corresponding timestamp!
Error: cannot find the corresponding timestamp!
Error: cannot find the corresponding timestamp!
Error: cannot find the corresponding timestamp!
Error: cannot find the corresponding timestamp!
Error: cannot find the corresponding timestamp!
Error: cannot find the corresponding timestamp!
Error: cannot find the corresponding timestamp!
Error: cannot find the corresponding timestamp!
Error: cannot find the corresponding timestamp!
Error: cannot find the corresponding timestamp!
Error: cannot find the corresponding timestamp!
Error: cannot find the corresponding timestamp!
Error: cannot find the corresponding timestamp!
Error: cannot find the corresponding timestamp!
Error: cannot find the corresponding timestamp!
Error: cannot find the corresponding timestamp!
Error: cannot find the corresponding timestamp!
Error: cannot find the corresponding timestamp!
Error: cannot find the corresponding timestamp!
Error: cannot find the corresponding timestamp!
Error: cannot find the corresponding timestamp!
Error: cannot find the corresponding timestamp!
Error: cannot find the corresponding timestamp!
Error: cannot find the corresponding timestamp!
Error: cannot find the corresponding timestamp!
Error: cannot find the corresponding timestamp!
Error: cannot find the corresponding timestamp!
Error: cannot find the corresponding timestamp!
Error: cannot find the corresponding timestamp!
Error: cannot find the corresponding timestamp!
Error: cannot find the corresponding timestamp!
Error: cannot find the corresponding timestamp!
Error: cannot find the corresponding timestamp!
Error: cannot find the corresponding timestamp!
Error: cannot find the corresponding timestamp!
Error: cannot find the corresponding timestamp!
Error: cannot find the corresponding timestamp!
Error: cannot find the corresponding timestamp!
Error: cannot find the corresponding timestamp!
Error: cannot find the corresponding timestamp!
Error: cannot find the corresponding timestamp!
Error: cannot find the corresponding timestamp!
Error: cannot find the corresponding timestamp!
Error: cannot find the corresponding timestamp!
Error: cannot find the corresponding timestamp!
Error: cannot find the corresponding timestamp!
Error: cannot find the corresponding timestamp!
Error: cannot find the corresponding timestamp!
Error: cannot find the corresponding timestamp!
Error: cannot find the corresponding timestamp!
Error: cannot find the corresponding timestamp!
Error: cannot find the corresponding timestamp!
Error: cannot find the corresponding timestamp!
Error: cannot find the corresponding timestamp!
Error: cannot find the corresponding timestamp!
Error: cannot find the corresponding timestamp!
Error: cannot find the corresponding timestamp!
Error: cannot find the corresponding timestamp!
Error: cannot find the corresponding timestamp!
Error: cannot find the corresponding timestamp!
Error: cannot find the corresponding timestamp!
Error: cannot find the corresponding timestamp!
Error: cannot find the corresponding timestamp!
Error: cannot find the corresponding timestamp!
Error: cannot find the corresponding timestamp!
Error: cannot find the corresponding timestamp!
Error: cannot find the corresponding timestamp!
Error: cannot find the corresponding timestamp!
Error: cannot find the corresponding timestamp!
Error: cannot find the corresponding timestamp!
Error: cannot find the corresponding timestamp!
Error: cannot find the corresponding timestamp!
Error: cannot find the corresponding timestamp!
Error: cannot find the corresponding timestamp!
Error: cannot find the corresponding timestamp!
Error: cannot find the corresponding timestamp!
Error: cannot find the corresponding timestamp!
Error: cannot find the corresponding timestamp!
Error: cannot find the corresponding timestamp!
Error: cannot find the corresponding timestamp!
Error: cannot find the corresponding timestamp!
Error: cannot find the corresponding timestamp!
Error: cannot find the corresponding timestamp!
Error: cannot find the corresponding timestamp!
Error: cannot find the corresponding timestamp!
Error: cannot find the corresponding timestamp!
Error: cannot find the corresponding timestamp!
Error: cannot find the corresponding timestamp!
Error: cannot find the corresponding timestamp!
Error: cannot find the corresponding timestamp!
Error: cannot find the corresponding timestamp!
Error: cannot find the corresponding timestamp!
Error: cannot find the corresponding timestamp!
Error: cannot find the corresponding timestamp!
Error: cannot find the corresponding timestamp!
Error: cannot find the corresponding timestamp!
Error: cannot find the corresponding timestamp!
Error: cannot find the corresponding timestamp!
Error: cannot find the corresponding timestamp!
Error: cannot find the corresponding timestamp!
Error: cannot find the corresponding timestamp!
Error: cannot find the corresponding timestamp!
Error: cannot find the corresponding timestamp!
Error: cannot find the corresponding timestamp!
Error: cannot find the corresponding timestamp!
Error: cannot find the corresponding timestamp!
Error: cannot find the corresponding timestamp!
Error: cannot find the corresponding timestamp!
Error: cannot find the corresponding timestamp!
Error: cannot find the corresponding timestamp!
Error: cannot find the corresponding timestamp!
Error: cannot find the corresponding timestamp!
Error: cannot find the corresponding timestamp!
Error: cannot find the corresponding timestamp!
Error: cannot find the corresponding timestamp!
Error: cannot find the corresponding timestamp!
Error: cannot find the corresponding timestamp!
Error: cannot find the corresponding timestamp!
Error: cannot find the corresponding timestamp!
Error: cannot find the corresponding timestamp!
Error: cannot find the corresponding timestamp!
Error: cannot find the corresponding timestamp!
Error: cannot find the corresponding timestamp!
Error: cannot find the corresponding timestamp!
Error: cannot find the corresponding timestamp!
Error: cannot find the corresponding timestamp!
Error: cannot find the corresponding timestamp!
Error: cannot find the corresponding timestamp!
Error: cannot find the corresponding timestamp!
Error: cannot find the corresponding timestamp!
Error: cannot find the corresponding timestamp!
Error: cannot find the corresponding timestamp!
Error: cannot find the corresponding timestamp!
Error: cannot find the corresponding timestamp!
Error: cannot find the corresponding timestamp!
Error: cannot find the corresponding timestamp!
Error: cannot find the corresponding timestamp!
Error: cannot find the corresponding timestamp!
Error: cannot find the corresponding timestamp!
Error: cannot find the corresponding timestamp!
Error: cannot find the corresponding timestamp!
Error: cannot find the corresponding timestamp!
Error: cannot find the corresponding timestamp!
Error: cannot find the corresponding timestamp!
Error: cannot find the corresponding timestamp!
Error: cannot find the corresponding timestamp!
Error: cannot find the corresponding timestamp!
Error: cannot find the corresponding timestamp!
Error: cannot find the corresponding timestamp!
Error: cannot find the corresponding timestamp!
Error: cannot find the corresponding timestamp!
Error: cannot find the corresponding timestamp!
Error: cannot find the corresponding timestamp!
Error: cannot find the corresponding timestamp!
Error: cannot find the corresponding timestamp!
Error: cannot find the corresponding timestamp!
Error: cannot find the corresponding timestamp!
Error: cannot find the corresponding timestamp!
Error: cannot find the corresponding timestamp!
Error: cannot find the corresponding timestamp!
Error: cannot find the corresponding timestamp!
Error: cannot find the corresponding timestamp!
Error: cannot find the corresponding timestamp!
Error: cannot find the corresponding timestamp!
Error: cannot find the corresponding timestamp!
Error: cannot find the corresponding timestamp!
Error: cannot find the corresponding timestamp!
Error: cannot find the corresponding timestamp!
Error: cannot find the corresponding timestamp!
Error: cannot find the corresponding timestamp!
Error: cannot find the corresponding timestamp!
Error: cannot find the corresponding timestamp!
Error: cannot find the corresponding timestamp!
Error: cannot find the corresponding timestamp!
Error: cannot find the corresponding timestamp!
Error: cannot find the corresponding timestamp!
Error: cannot find the corresponding timestamp!
Error: cannot find the corresponding timestamp!
Error: cannot find the corresponding timestamp!
Error: cannot find the corresponding timestamp!
Error: cannot find the corresponding timestamp!
Error: cannot find the corresponding timestamp!
Error: cannot find the corresponding timestamp!
Error: cannot find the corresponding timestamp!
Error: cannot find the corresponding timestamp!
Error: cannot find the corresponding timestamp!
Error: cannot find the corresponding timestamp!
Error: cannot find the corresponding timestamp!
Error: cannot find the corresponding timestamp!
Error: cannot find the corresponding timestamp!
Error: cannot find the corresponding timestamp!
Error: cannot find the corresponding timestamp!
Error: cannot find the corresponding timestamp!
Error: cannot find the corresponding timestamp!
Error: cannot find the corresponding timestamp!
Error: cannot find the corresponding timestamp!
Error: cannot find the corresponding timestamp!
Error: cannot find the corresponding timestamp!
Error: cannot find the corresponding timestamp!
Error: cannot find the corresponding timestamp!
Error: cannot find the corresponding timestamp!
Error: cannot find the corresponding timestamp!
Error: cannot find the corresponding timestamp!
Error: cannot find the corresponding timestamp!
Error: cannot find the corresponding timestamp!
Error: cannot find the corresponding timestamp!
Error: cannot find the corresponding timestamp!
Error: cannot find the corresponding timestamp!
Error: cannot find the corresponding timestamp!
Error: cannot find the corresponding timestamp!
Error: cannot find the corresponding timestamp!
Error: cannot find the corresponding timestamp!
Error: cannot find the corresponding timestamp!
Error: cannot find the corresponding timestamp!
Error: cannot find the corresponding timestamp!
Error: cannot find the corresponding timestamp!
Error: cannot find the corresponding timestamp!
Error: cannot find the corresponding timestamp!
Error: cannot find the corresponding timestamp!
Error: cannot find the corresponding timestamp!
Error: cannot find the corresponding timestamp!
Error: cannot find the corresponding timestamp!
Error: cannot find the corresponding timestamp!
Error: cannot find the corresponding timestamp!
Error: cannot find the corresponding timestamp!
Error: cannot find the corresponding timestamp!
Error: cannot find the corresponding timestamp!
Error: cannot find the corresponding timestamp!
Error: cannot find the corresponding timestamp!
Error: cannot find the corresponding timestamp!
Error: cannot find the corresponding timestamp!
Error: cannot find the corresponding timestamp!
Error: cannot find the corresponding timestamp!
Error: cannot find the corresponding timestamp!
Error: cannot find the corresponding timestamp!
Error: cannot find the corresponding timestamp!
Error: cannot find the corresponding timestamp!
Error: cannot find the corresponding timestamp!
Error: cannot find the corresponding timestamp!
Error: cannot find the corresponding timestamp!
Error: cannot find the corresponding timestamp!
Error: cannot find the corresponding timestamp!
Error: cannot find the corresponding timestamp!
Error: cannot find the corresponding timestamp!
Error: cannot find the corresponding timestamp!
Error: cannot find the corresponding timestamp!
Error: cannot find the corresponding timestamp!
Error: cannot find the corresponding timestamp!
Error: cannot find the corresponding timestamp!
Error: cannot find the corresponding timestamp!
Error: cannot find the corresponding timestamp!
Error: cannot find the corresponding timestamp!
Error: cannot find the corresponding timestamp!
Error: cannot find the corresponding timestamp!
Error: cannot find the corresponding timestamp!
Error: cannot find the corresponding timestamp!
Error: cannot find the corresponding timestamp!
Error: cannot find the corresponding timestamp!
Error: cannot find the corresponding timestamp!
Error: cannot find the corresponding timestamp!
Error: cannot find the corresponding timestamp!
Error: cannot find the corresponding timestamp!
Error: cannot find the corresponding timestamp!
Error: cannot find the corresponding timestamp!
Error: cannot find the corresponding timestamp!
Error: cannot find the corresponding timestamp!
Error: cannot find the corresponding timestamp!
Error: cannot find the corresponding timestamp!
Error: cannot find the corresponding timestamp!
Error: cannot find the corresponding timestamp!
Error: cannot find the corresponding timestamp!
Error: cannot find the corresponding timestamp!
Error: cannot find the corresponding timestamp!
Error: cannot find the corresponding timestamp!
Error: cannot find the corresponding timestamp!
Error: cannot find the corresponding timestamp!
Error: cannot find the corresponding timestamp!
Error: cannot find the corresponding timestamp!
Error: cannot find the corresponding timestamp!
Error: cannot find the corresponding timestamp!
Error: cannot find the corresponding timestamp!
Error: cannot find the corresponding timestamp!
Error: cannot find the corresponding timestamp!
Error: cannot find the corresponding timestamp!
Error: cannot find the corresponding timestamp!
Error: cannot find the corresponding timestamp!
Error: cannot find the corresponding timestamp!
Error: cannot find the corresponding timestamp!
Error: cannot find the corresponding timestamp!
Error: cannot find the corresponding timestamp!
Error: cannot find the corresponding timestamp!
Error: cannot find the corresponding timestamp!
Error: cannot find the corresponding timestamp!
Error: cannot find the corresponding timestamp!
Error: cannot find the corresponding timestamp!
Error: cannot find the corresponding timestamp!
Error: cannot find the corresponding timestamp!
Error: cannot find the corresponding timestamp!
Error: cannot find the corresponding timestamp!
Error: cannot find the corresponding timestamp!
Error: cannot find the corresponding timestamp!
Error: cannot find the corresponding timestamp!
Error: cannot find the corresponding timestamp!
Error: cannot find the corresponding timestamp!
Error: cannot find the corresponding timestamp!
Error: cannot find the corresponding timestamp!
Error: cannot find the corresponding timestamp!
Error: cannot find the corresponding timestamp!
Error: cannot find the corresponding timestamp!
Error: cannot find the corresponding timestamp!
Error: cannot find the corresponding timestamp!
Error: cannot find the corresponding timestamp!
Error: cannot find the corresponding timestamp!
Error: cannot find the corresponding timestamp!
Error: cannot find the corresponding timestamp!
Error: cannot find the corresponding timestamp!
Error: cannot find the corresponding timestamp!
Error: cannot find the corresponding timestamp!
Error: cannot find the corresponding timestamp!
Error: cannot find the corresponding timestamp!
Error: cannot find the corresponding timestamp!
Error: cannot find the corresponding timestamp!
Error: cannot find the corresponding timestamp!
Error: cannot find the corresponding timestamp!
Error: cannot find the corresponding timestamp!
Error: cannot find the corresponding timestamp!
Error: cannot find the corresponding timestamp!
Error: cannot find the corresponding timestamp!
Error: cannot find the corresponding timestamp!
Error: cannot find the corresponding timestamp!
Error: cannot find the corresponding timestamp!
Error: cannot find the corresponding timestamp!
Error: cannot find the corresponding timestamp!
Error: cannot find the corresponding timestamp!
Error: cannot find the corresponding timestamp!
Error: cannot find the corresponding timestamp!
Error: cannot find the corresponding timestamp!
Error: cannot find the corresponding timestamp!
Error: cannot find the corresponding timestamp!
Error: cannot find the corresponding timestamp!
Error: cannot find the corresponding timestamp!
Error: cannot find the corresponding timestamp!
Error: cannot find the corresponding timestamp!
Error: cannot find the corresponding timestamp!
Error: cannot find the corresponding timestamp!
Error: cannot find the corresponding timestamp!
Error: cannot find the corresponding timestamp!
Error: cannot find the corresponding timestamp!
Error: cannot find the corresponding timestamp!
Error: cannot find the corresponding timestamp!
Error: cannot find the corresponding timestamp!
Error: cannot find the corresponding timestamp!
Error: cannot find the corresponding timestamp!
Error: cannot find the corresponding timestamp!
Error: cannot find the corresponding timestamp!
Error: cannot find the corresponding timestamp!
Error: cannot find the corresponding timestamp!
Error: cannot find the corresponding timestamp!
Error: cannot find the corresponding timestamp!
Error: cannot find the corresponding timestamp!
Error: cannot find the corresponding timestamp!
Error: cannot find the corresponding timestamp!
Error: cannot find the corresponding timestamp!
Error: cannot find the corresponding timestamp!
Error: cannot find the corresponding timestamp!
Error: cannot find the corresponding timestamp!
Error: cannot find the corresponding timestamp!
Error: cannot find the corresponding timestamp!
Error: cannot find the corresponding timestamp!
Error: cannot find the corresponding timestamp!
Error: cannot find the corresponding timestamp!
Error: cannot find the corresponding timestamp!
Error: cannot find the corresponding timestamp!
Error: cannot find the corresponding timestamp!
Error: cannot find the corresponding timestamp!
Error: cannot find the corresponding timestamp!
Error: cannot find the corresponding timestamp!
Error: cannot find the corresponding timestamp!
Error: cannot find the corresponding timestamp!
Error: cannot find the corresponding timestamp!
Error: cannot find the corresponding timestamp!
Error: cannot find the corresponding timestamp!
Error: cannot find the corresponding timestamp!
Error: cannot find the corresponding timestamp!
Error: cannot find the corresponding timestamp!
Error: cannot find the corresponding timestamp!
Error: cannot find the corresponding timestamp!
Error: cannot find the corresponding timestamp!
Error: cannot find the corresponding timestamp!
Error: cannot find the corresponding timestamp!
Error: cannot find the corresponding timestamp!
Error: cannot find the corresponding timestamp!
Error: cannot find the corresponding timestamp!
Error: cannot find the corresponding timestamp!
Error: cannot find the corresponding timestamp!
Error: cannot find the corresponding timestamp!
Error: cannot find the corresponding timestamp!
Error: cannot find the corresponding timestamp!
Error: cannot find the corresponding timestamp!
Error: cannot find the corresponding timestamp!
Error: cannot find the corresponding timestamp!
Error: cannot find the corresponding timestamp!
Error: cannot find the corresponding timestamp!
Error: cannot find the corresponding timestamp!
Error: cannot find the corresponding timestamp!
Error: cannot find the corresponding timestamp!
Error: cannot find the corresponding timestamp!
Error: cannot find the corresponding timestamp!
Error: cannot find the corresponding timestamp!
Error: cannot find the corresponding timestamp!
Error: cannot find the corresponding timestamp!
Error: cannot find the corresponding timestamp!
Error: cannot find the corresponding timestamp!
Error: cannot find the corresponding timestamp!
Error: cannot find the corresponding timestamp!
Error: cannot find the corresponding timestamp!
Error: cannot find the corresponding timestamp!
Error: cannot find the corresponding timestamp!
Error: cannot find the corresponding timestamp!
Error: cannot find the corresponding timestamp!
Error: cannot find the corresponding timestamp!
Error: cannot find the corresponding timestamp!
Error: cannot find the corresponding timestamp!
Error: cannot find the corresponding timestamp!
Error: cannot find the corresponding timestamp!
Error: cannot find the corresponding timestamp!
Error: cannot find the corresponding timestamp!
Error: cannot find the corresponding timestamp!
Error: cannot find the corresponding timestamp!
Error: cannot find the corresponding timestamp!
Error: cannot find the corresponding timestamp!
Error: cannot find the corresponding timestamp!
Error: cannot find the corresponding timestamp!
Error: cannot find the corresponding timestamp!
Error: cannot find the corresponding timestamp!
Error: cannot find the corresponding timestamp!
Error: cannot find the corresponding timestamp!
Error: cannot find the corresponding timestamp!
Error: cannot find the corresponding timestamp!
Error: cannot find the corresponding timestamp!
Error: cannot find the corresponding timestamp!
Error: cannot find the corresponding timestamp!
Error: cannot find the corresponding timestamp!
Error: cannot find the corresponding timestamp!
Error: cannot find the corresponding timestamp!
Error: cannot find the corresponding timestamp!
Error: cannot find the corresponding timestamp!
Error: cannot find the corresponding timestamp!
Error: cannot find the corresponding timestamp!
Error: cannot find the corresponding timestamp!
Error: cannot find the corresponding timestamp!
Error: cannot find the corresponding timestamp!
Error: cannot find the corresponding timestamp!
Error: cannot find the corresponding timestamp!
Error: cannot find the corresponding timestamp!
Error: cannot find the corresponding timestamp!
Error: cannot find the corresponding timestamp!
Error: cannot find the corresponding timestamp!
Error: cannot find the corresponding timestamp!
Error: cannot find the corresponding timestamp!
Error: cannot find the corresponding timestamp!
Error: cannot find the corresponding timestamp!
Error: cannot find the corresponding timestamp!
Error: cannot find the corresponding timestamp!
Error: cannot find the corresponding timestamp!
Error: cannot find the corresponding timestamp!
Error: cannot find the corresponding timestamp!
Error: cannot find the corresponding timestamp!
Error: cannot find the corresponding timestamp!
Error: cannot find the corresponding timestamp!
Error: cannot find the corresponding timestamp!
Error: cannot find the corresponding timestamp!
Error: cannot find the corresponding timestamp!
Error: cannot find the corresponding timestamp!
Error: cannot find the corresponding timestamp!
Error: cannot find the corresponding timestamp!
Error: cannot find the corresponding timestamp!
Error: cannot find the corresponding timestamp!
Error: cannot find the corresponding timestamp!
Error: cannot find the corresponding timestamp!
Error: cannot find the corresponding timestamp!
Error: cannot find the corresponding timestamp!
Error: cannot find the corresponding timestamp!
Error: cannot find the corresponding timestamp!
Error: cannot find the corresponding timestamp!
Error: cannot find the corresponding timestamp!
Error: cannot find the corresponding timestamp!
Error: cannot find the corresponding timestamp!
Error: cannot find the corresponding timestamp!
Error: cannot find the corresponding timestamp!
Error: cannot find the corresponding timestamp!
Error: cannot find the corresponding timestamp!
Error: cannot find the corresponding timestamp!
Error: cannot find the corresponding timestamp!
Error: cannot find the corresponding timestamp!
Error: cannot find the corresponding timestamp!
Error: cannot find the corresponding timestamp!
Error: cannot find the corresponding timestamp!
Error: cannot find the corresponding timestamp!
Error: cannot find the corresponding timestamp!
Error: cannot find the corresponding timestamp!
Error: cannot find the corresponding timestamp!
Error: cannot find the corresponding timestamp!
Error: cannot find the corresponding timestamp!
Error: cannot find the corresponding timestamp!
Error: cannot find the corresponding timestamp!
Error: cannot find the corresponding timestamp!
Error: cannot find the corresponding timestamp!
Error: cannot find the corresponding timestamp!
Error: cannot find the corresponding timestamp!
Error: cannot find the corresponding timestamp!
Error: cannot find the corresponding timestamp!
Error: cannot find the corresponding timestamp!
Error: cannot find the corresponding timestamp!
Error: cannot find the corresponding timestamp!
Error: cannot find the corresponding timestamp!
Error: cannot find the corresponding timestamp!
Error: cannot find the corresponding timestamp!
Error: cannot find the corresponding timestamp!
Error: cannot find the corresponding timestamp!
Error: cannot find the corresponding timestamp!
Error: cannot find the corresponding timestamp!
Error: cannot find the corresponding timestamp!
Error: cannot find the corresponding timestamp!
Error: cannot find the corresponding timestamp!
Error: cannot find the corresponding timestamp!
Error: cannot find the corresponding timestamp!
Error: cannot find the corresponding timestamp!
Error: cannot find the corresponding timestamp!
Error: cannot find the corresponding timestamp!
Error: cannot find the corresponding timestamp!
Error: cannot find the corresponding timestamp!
Error: cannot find the corresponding timestamp!
Error: cannot find the corresponding timestamp!
Error: cannot find the corresponding timestamp!
Error: cannot find the corresponding timestamp!
Error: cannot find the corresponding timestamp!
Error: cannot find the corresponding timestamp!
Error: cannot find the corresponding timestamp!
Error: cannot find the corresponding timestamp!
Error: cannot find the corresponding timestamp!
Error: cannot find the corresponding timestamp!
Error: cannot find the corresponding timestamp!
Error: cannot find the corresponding timestamp!
Error: cannot find the corresponding timestamp!
Error: cannot find the corresponding timestamp!
Error: cannot find the corresponding timestamp!
Error: cannot find the corresponding timestamp!
Error: cannot find the corresponding timestamp!
Error: cannot find the corresponding timestamp!
Error: cannot find the corresponding timestamp!
Error: cannot find the corresponding timestamp!
Error: cannot find the corresponding timestamp!
Error: cannot find the corresponding timestamp!
Error: cannot find the corresponding timestamp!
Error: cannot find the corresponding timestamp!
Error: cannot find the corresponding timestamp!
Error: cannot find the corresponding timestamp!
Error: cannot find the corresponding timestamp!
Error: cannot find the corresponding timestamp!
Error: cannot find the corresponding timestamp!
Error: cannot find the corresponding timestamp!
Error: cannot find the corresponding timestamp!
Error: cannot find the corresponding timestamp!
Error: cannot find the corresponding timestamp!
Error: cannot find the corresponding timestamp!
Error: cannot find the corresponding timestamp!
Error: cannot find the corresponding timestamp!
Error: cannot find the corresponding timestamp!
Error: cannot find the corresponding timestamp!
Error: cannot find the corresponding timestamp!
Error: cannot find the corresponding timestamp!
Error: cannot find the corresponding timestamp!
Error: cannot find the corresponding timestamp!
Error: cannot find the corresponding timestamp!
Error: cannot find the corresponding timestamp!
Error: cannot find the corresponding timestamp!
Error: cannot find the corresponding timestamp!
Error: cannot find the corresponding timestamp!
Error: cannot find the corresponding timestamp!
Error: cannot find the corresponding timestamp!
Error: cannot find the corresponding timestamp!
Error: cannot find the corresponding timestamp!
Error: cannot find the corresponding timestamp!
Error: cannot find the corresponding timestamp!
Error: cannot find the corresponding timestamp!
Error: cannot find the corresponding timestamp!
Error: cannot find the corresponding timestamp!
Error: cannot find the corresponding timestamp!
Error: cannot find the corresponding timestamp!
Error: cannot find the corresponding timestamp!
Error: cannot find the corresponding timestamp!
Error: cannot find the corresponding timestamp!
Error: cannot find the corresponding timestamp!
Error: cannot find the corresponding timestamp!
Error: cannot find the corresponding timestamp!
Error: cannot find the corresponding timestamp!
Error: cannot find the corresponding timestamp!
Error: cannot find the corresponding timestamp!
Error: cannot find the corresponding timestamp!
Error: cannot find the corresponding timestamp!
Error: cannot find the corresponding timestamp!
Error: cannot find the corresponding timestamp!
Error: cannot find the corresponding timestamp!
Error: cannot find the corresponding timestamp!
Error: cannot find the corresponding timestamp!
Error: cannot find the corresponding timestamp!
Error: cannot find the corresponding timestamp!
Error: cannot find the corresponding timestamp!
Error: cannot find the corresponding timestamp!
Error: cannot find the corresponding timestamp!
Error: cannot find the corresponding timestamp!
Error: cannot find the corresponding timestamp!
Error: cannot find the corresponding timestamp!
Error: cannot find the corresponding timestamp!
Error: cannot find the corresponding timestamp!
Error: cannot find the corresponding timestamp!
Error: cannot find the corresponding timestamp!
Error: cannot find the corresponding timestamp!
Error: cannot find the corresponding timestamp!
Error: cannot find the corresponding timestamp!
Error: cannot find the corresponding timestamp!
Error: cannot find the corresponding timestamp!
Error: cannot find the corresponding timestamp!
Error: cannot find the corresponding timestamp!
Error: cannot find the corresponding timestamp!
Error: cannot find the corresponding timestamp!
Error: cannot find the corresponding timestamp!
Error: cannot find the corresponding timestamp!
Error: cannot find the corresponding timestamp!
Error: cannot find the corresponding timestamp!
Error: cannot find the corresponding timestamp!
Error: cannot find the corresponding timestamp!
Error: cannot find the corresponding timestamp!
Error: cannot find the corresponding timestamp!
Error: cannot find the corresponding timestamp!
Error: cannot find the corresponding timestamp!
Error: cannot find the corresponding timestamp!
Error: cannot find the corresponding timestamp!
Error: cannot find the corresponding timestamp!
Error: cannot find the corresponding timestamp!
Error: cannot find the corresponding timestamp!
Error: cannot find the corresponding timestamp!
Error: cannot find the corresponding timestamp!
Error: cannot find the corresponding timestamp!
Error: cannot find the corresponding timestamp!
Error: cannot find the corresponding timestamp!
Error: cannot find the corresponding timestamp!
Error: cannot find the corresponding timestamp!
Error: cannot find the corresponding timestamp!
Error: cannot find the corresponding timestamp!
Error: cannot find the corresponding timestamp!
Error: cannot find the corresponding timestamp!
Error: cannot find the corresponding timestamp!
Error: cannot find the corresponding timestamp!
Error: cannot find the corresponding timestamp!
Error: cannot find the corresponding timestamp!
Error: cannot find the corresponding timestamp!
Error: cannot find the corresponding timestamp!
Error: cannot find the corresponding timestamp!
Error: cannot find the corresponding timestamp!
Error: cannot find the corresponding timestamp!
Error: cannot find the corresponding timestamp!
Error: cannot find the corresponding timestamp!
Error: cannot find the corresponding timestamp!
Error: cannot find the corresponding timestamp!
Error: cannot find the corresponding timestamp!
Error: cannot find the corresponding timestamp!
Error: cannot find the corresponding timestamp!
Error: cannot find the corresponding timestamp!
Error: cannot find the corresponding timestamp!
Error: cannot find the corresponding timestamp!
Error: cannot find the corresponding timestamp!
Error: cannot find the corresponding timestamp!
Error: cannot find the corresponding timestamp!
Error: cannot find the corresponding timestamp!
Error: cannot find the corresponding timestamp!
Error: cannot find the corresponding timestamp!
Error: cannot find the corresponding timestamp!
Error: cannot find the corresponding timestamp!
Error: cannot find the corresponding timestamp!
Error: cannot find the corresponding timestamp!
Error: cannot find the corresponding timestamp!
Error: cannot find the corresponding timestamp!
Error: cannot find the corresponding timestamp!
Error: cannot find the corresponding timestamp!
Error: cannot find the corresponding timestamp!
Error: cannot find the corresponding timestamp!
Error: cannot find the corresponding timestamp!
Error: cannot find the corresponding timestamp!
Error: cannot find the corresponding timestamp!
Error: cannot find the corresponding timestamp!
Error: cannot find the corresponding timestamp!
Error: cannot find the corresponding timestamp!
Error: cannot find the corresponding timestamp!
Error: cannot find the corresponding timestamp!
Error: cannot find the corresponding timestamp!
Error: cannot find the corresponding timestamp!
Error: cannot find the corresponding timestamp!
Error: cannot find the corresponding timestamp!
Error: cannot find the corresponding timestamp!
Error: cannot find the corresponding timestamp!
Error: cannot find the corresponding timestamp!
Error: cannot find the corresponding timestamp!
Error: cannot find the corresponding timestamp!
Error: cannot find the corresponding timestamp!
Error: cannot find the corresponding timestamp!
Error: cannot find the corresponding timestamp!
Error: cannot find the corresponding timestamp!
Error: cannot find the corresponding timestamp!
Error: cannot find the corresponding timestamp!
Error: cannot find the corresponding timestamp!
Error: cannot find the corresponding timestamp!
Error: cannot find the corresponding timestamp!
Error: cannot find the corresponding timestamp!
Error: cannot find the corresponding timestamp!
Error: cannot find the corresponding timestamp!
Error: cannot find the corresponding timestamp!
Error: cannot find the corresponding timestamp!
Error: cannot find the corresponding timestamp!
Error: cannot find the corresponding timestamp!
Error: cannot find the corresponding timestamp!
Error: cannot find the corresponding timestamp!
Error: cannot find the corresponding timestamp!
Error: cannot find the corresponding timestamp!
Error: cannot find the corresponding timestamp!
Error: cannot find the corresponding timestamp!
Error: cannot find the corresponding timestamp!
Error: cannot find the corresponding timestamp!
Error: cannot find the corresponding timestamp!
Error: cannot find the corresponding timestamp!
Error: cannot find the corresponding timestamp!
Error: cannot find the corresponding timestamp!
Error: cannot find the corresponding timestamp!
Error: cannot find the corresponding timestamp!
Error: cannot find the corresponding timestamp!
Error: cannot find the corresponding timestamp!
Error: cannot find the corresponding timestamp!
Error: cannot find the corresponding timestamp!
Error: cannot find the corresponding timestamp!
Error: cannot find the corresponding timestamp!
Error: cannot find the corresponding timestamp!
Error: cannot find the corresponding timestamp!
Error: cannot find the corresponding timestamp!
Error: cannot find the corresponding timestamp!
Error: cannot find the corresponding timestamp!
Error: cannot find the corresponding timestamp!
Error: cannot find the corresponding timestamp!
Error: cannot find the corresponding timestamp!
Error: cannot find the corresponding timestamp!
Error: cannot find the corresponding timestamp!
Error: cannot find the corresponding timestamp!
Error: cannot find the corresponding timestamp!
Error: cannot find the corresponding timestamp!
Error: cannot find the corresponding timestamp!
Error: cannot find the corresponding timestamp!
Error: cannot find the corresponding timestamp!
Error: cannot find the corresponding timestamp!
Error: cannot find the corresponding timestamp!
Error: cannot find the corresponding timestamp!
Error: cannot find the corresponding timestamp!
Error: cannot find the corresponding timestamp!
Error: cannot find the corresponding timestamp!
Error: cannot find the corresponding timestamp!
Error: cannot find the corresponding timestamp!
Error: cannot find the corresponding timestamp!
Error: cannot find the corresponding timestamp!
Error: cannot find the corresponding timestamp!
Error: cannot find the corresponding timestamp!
Error: cannot find the corresponding timestamp!
Error: cannot find the corresponding timestamp!
Error: cannot find the corresponding timestamp!
Error: cannot find the corresponding timestamp!
Error: cannot find the corresponding timestamp!
Error: cannot find the corresponding timestamp!
Error: cannot find the corresponding timestamp!
Error: cannot find the corresponding timestamp!
Error: cannot find the corresponding timestamp!
Error: cannot find the corresponding timestamp!
Error: cannot find the corresponding timestamp!
Error: cannot find the corresponding timestamp!
Error: cannot find the corresponding timestamp!
Error: cannot find the corresponding timestamp!
Error: cannot find the corresponding timestamp!
Error: cannot find the corresponding timestamp!
Error: cannot find the corresponding timestamp!
Error: cannot find the corresponding timestamp!
Error: cannot find the corresponding timestamp!
Error: cannot find the corresponding timestamp!
Error: cannot find the corresponding timestamp!
Error: cannot find the corresponding timestamp!
Error: cannot find the corresponding timestamp!
Error: cannot find the corresponding timestamp!
Error: cannot find the corresponding timestamp!
Error: cannot find the corresponding timestamp!
Error: cannot find the corresponding timestamp!
Error: cannot find the corresponding timestamp!
Error: cannot find the corresponding timestamp!
Error: cannot find the corresponding timestamp!
Error: cannot find the corresponding timestamp!
Error: cannot find the corresponding timestamp!
Error: cannot find the corresponding timestamp!
Error: cannot find the corresponding timestamp!
Error: cannot find the corresponding timestamp!
Error: cannot find the corresponding timestamp!
Error: cannot find the corresponding timestamp!
Error: cannot find the corresponding timestamp!
Error: cannot find the corresponding timestamp!
Error: cannot find the corresponding timestamp!
Error: cannot find the corresponding timestamp!
Error: cannot find the corresponding timestamp!
Error: cannot find the corresponding timestamp!
Error: cannot find the corresponding timestamp!
Error: cannot find the corresponding timestamp!
Error: cannot find the corresponding timestamp!
Error: cannot find the corresponding timestamp!
Error: cannot find the corresponding timestamp!
Error: cannot find the corresponding timestamp!
Error: cannot find the corresponding timestamp!
Error: cannot find the corresponding timestamp!
Error: cannot find the corresponding timestamp!
Error: cannot find the corresponding timestamp!
Error: cannot find the corresponding timestamp!
Error: cannot find the corresponding timestamp!
Error: cannot find the corresponding timestamp!
Error: cannot find the corresponding timestamp!
Error: cannot find the corresponding timestamp!
Error: cannot find the corresponding timestamp!
Error: cannot find the corresponding timestamp!
Error: cannot find the corresponding timestamp!
Error: cannot find the corresponding timestamp!
Error: cannot find the corresponding timestamp!
Error: cannot find the corresponding timestamp!
Error: cannot find the corresponding timestamp!
Error: cannot find the corresponding timestamp!
Error: cannot find the corresponding timestamp!
Error: cannot find the corresponding timestamp!
Error: cannot find the corresponding timestamp!
Error: cannot find the corresponding timestamp!
Error: cannot find the corresponding timestamp!
Error: cannot find the corresponding timestamp!
Error: cannot find the corresponding timestamp!
Error: cannot find the corresponding timestamp!
Error: cannot find the corresponding timestamp!
Error: cannot find the corresponding timestamp!
Error: cannot find the corresponding timestamp!
Error: cannot find the corresponding timestamp!
Error: cannot find the corresponding timestamp!
Error: cannot find the corresponding timestamp!
Error: cannot find the corresponding timestamp!
Error: cannot find the corresponding timestamp!
Error: cannot find the corresponding timestamp!
Error: cannot find the corresponding timestamp!
Error: cannot find the corresponding timestamp!
Error: cannot find the corresponding timestamp!
Error: cannot find the corresponding timestamp!
Error: cannot find the corresponding timestamp!
Error: cannot find the corresponding timestamp!
Error: cannot find the corresponding timestamp!
Error: cannot find the corresponding timestamp!
Error: cannot find the corresponding timestamp!
Error: cannot find the corresponding timestamp!
Error: cannot find the corresponding timestamp!
Error: cannot find the corresponding timestamp!
Error: cannot find the corresponding timestamp!
Error: cannot find the corresponding timestamp!
Error: cannot find the corresponding timestamp!
Error: cannot find the corresponding timestamp!
Error: cannot find the corresponding timestamp!
Error: cannot find the corresponding timestamp!
Error: cannot find the corresponding timestamp!
Error: cannot find the corresponding timestamp!
Error: cannot find the corresponding timestamp!
Error: cannot find the corresponding timestamp!
Error: cannot find the corresponding timestamp!
Error: cannot find the corresponding timestamp!
Error: cannot find the corresponding timestamp!
Error: cannot find the corresponding timestamp!
Error: cannot find the corresponding timestamp!
Error: cannot find the corresponding timestamp!
Error: cannot find the corresponding timestamp!
Error: cannot find the corresponding timestamp!
Error: cannot find the corresponding timestamp!
Error: cannot find the corresponding timestamp!
Error: cannot find the corresponding timestamp!
Error: cannot find the corresponding timestamp!
Error: cannot find the corresponding timestamp!
Error: cannot find the corresponding timestamp!
Error: cannot find the corresponding timestamp!
Error: cannot find the corresponding timestamp!
Error: cannot find the corresponding timestamp!
Error: cannot find the corresponding timestamp!
Error: cannot find the corresponding timestamp!
Error: cannot find the corresponding timestamp!
Error: cannot find the corresponding timestamp!
Error: cannot find the corresponding timestamp!
Error: cannot find the corresponding timestamp!
Error: cannot find the corresponding timestamp!
Error: cannot find the corresponding timestamp!
Error: cannot find the corresponding timestamp!
Error: cannot find the corresponding timestamp!
Error: cannot find the corresponding timestamp!
Error: cannot find the corresponding timestamp!
Error: cannot find the corresponding timestamp!
Error: cannot find the corresponding timestamp!
Error: cannot find the corresponding timestamp!
Error: cannot find the corresponding timestamp!
Error: cannot find the corresponding timestamp!
Error: cannot find the corresponding timestamp!
Error: cannot find the corresponding timestamp!
Error: cannot find the corresponding timestamp!
Error: cannot find the corresponding timestamp!
Error: cannot find the corresponding timestamp!
Error: cannot find the corresponding timestamp!
Error: cannot find the corresponding timestamp!
Error: cannot find the corresponding timestamp!
Error: cannot find the corresponding timestamp!
Error: cannot find the corresponding timestamp!
Error: cannot find the corresponding timestamp!
Error: cannot find the corresponding timestamp!
Error: cannot find the corresponding timestamp!
Error: cannot find the corresponding timestamp!
Error: cannot find the corresponding timestamp!
Error: cannot find the corresponding timestamp!
Error: cannot find the corresponding timestamp!
Error: cannot find the corresponding timestamp!
Error: cannot find the corresponding timestamp!
Error: cannot find the corresponding timestamp!
Error: cannot find the corresponding timestamp!
Error: cannot find the corresponding timestamp!
Error: cannot find the corresponding timestamp!
Error: cannot find the corresponding timestamp!
Error: cannot find the corresponding timestamp!
Error: cannot find the corresponding timestamp!
Error: cannot find the corresponding timestamp!
Error: cannot find the corresponding timestamp!
Error: cannot find the corresponding timestamp!
Error: cannot find the corresponding timestamp!
Error: cannot find the corresponding timestamp!
Error: cannot find the corresponding timestamp!
Error: cannot find the corresponding timestamp!
Error: cannot find the corresponding timestamp!
Error: cannot find the corresponding timestamp!
Error: cannot find the corresponding timestamp!
Error: cannot find the corresponding timestamp!
Error: cannot find the corresponding timestamp!
Error: cannot find the corresponding timestamp!
Error: cannot find the corresponding timestamp!
Error: cannot find the corresponding timestamp!
Error: cannot find the corresponding timestamp!
Error: cannot find the corresponding timestamp!
Error: cannot find the corresponding timestamp!
Error: cannot find the corresponding timestamp!
Error: cannot find the corresponding timestamp!
Error: cannot find the corresponding timestamp!
Error: cannot find the corresponding timestamp!
Error: cannot find the corresponding timestamp!
Error: cannot find the corresponding timestamp!
Error: cannot find the corresponding timestamp!
Error: cannot find the corresponding timestamp!
Error: cannot find the corresponding timestamp!
Error: cannot find the corresponding timestamp!
Error: cannot find the corresponding timestamp!
Error: cannot find the corresponding timestamp!
Error: cannot find the corresponding timestamp!
Error: cannot find the corresponding timestamp!
Error: cannot find the corresponding timestamp!
Error: cannot find the corresponding timestamp!
Error: cannot find the corresponding timestamp!
Error: cannot find the corresponding timestamp!
Error: cannot find the corresponding timestamp!
Error: cannot find the corresponding timestamp!
Error: cannot find the corresponding timestamp!
Error: cannot find the corresponding timestamp!
Error: cannot find the corresponding timestamp!
Error: cannot find the corresponding timestamp!
Error: cannot find the corresponding timestamp!
Error: cannot find the corresponding timestamp!
Error: cannot find the corresponding timestamp!
Error: cannot find the corresponding timestamp!
Error: cannot find the corresponding timestamp!
Error: cannot find the corresponding timestamp!
Error: cannot find the corresponding timestamp!
Error: cannot find the corresponding timestamp!
Error: cannot find the corresponding timestamp!
Error: cannot find the corresponding timestamp!
Error: cannot find the corresponding timestamp!
Error: cannot find the corresponding timestamp!
Error: cannot find the corresponding timestamp!
Error: cannot find the corresponding timestamp!
Error: cannot find the corresponding timestamp!
Error: cannot find the corresponding timestamp!
Error: cannot find the corresponding timestamp!
Error: cannot find the corresponding timestamp!
Error: cannot find the corresponding timestamp!
Error: cannot find the corresponding timestamp!
Error: cannot find the corresponding timestamp!
Error: cannot find the corresponding timestamp!
Error: cannot find the corresponding timestamp!
Error: cannot find the corresponding timestamp!
Error: cannot find the corresponding timestamp!
Error: cannot find the corresponding timestamp!
Error: cannot find the corresponding timestamp!
Error: cannot find the corresponding timestamp!
Error: cannot find the corresponding timestamp!
Error: cannot find the corresponding timestamp!
Error: cannot find the corresponding timestamp!
Error: cannot find the corresponding timestamp!
Error: cannot find the corresponding timestamp!
Error: cannot find the corresponding timestamp!
Error: cannot find the corresponding timestamp!
Error: cannot find the corresponding timestamp!
Error: cannot find the corresponding timestamp!
Error: cannot find the corresponding timestamp!
Error: cannot find the corresponding timestamp!
Error: cannot find the corresponding timestamp!
Error: cannot find the corresponding timestamp!
Error: cannot find the corresponding timestamp!
Error: cannot find the corresponding timestamp!
Error: cannot find the corresponding timestamp!
Error: cannot find the corresponding timestamp!
Error: cannot find the corresponding timestamp!
Error: cannot find the corresponding timestamp!
Error: cannot find the corresponding timestamp!
Error: cannot find the corresponding timestamp!
Error: cannot find the corresponding timestamp!
Error: cannot find the corresponding timestamp!
Error: cannot find the corresponding timestamp!
Error: cannot find the corresponding timestamp!
Error: cannot find the corresponding timestamp!
Error: cannot find the corresponding timestamp!
Error: cannot find the corresponding timestamp!
Error: cannot find the corresponding timestamp!
Error: cannot find the corresponding timestamp!
Error: cannot find the corresponding timestamp!
Error: cannot find the corresponding timestamp!
Error: cannot find the corresponding timestamp!
Error: cannot find the corresponding timestamp!
Error: cannot find the corresponding timestamp!
Error: cannot find the corresponding timestamp!
Error: cannot find the corresponding timestamp!
Error: cannot find the corresponding timestamp!
Error: cannot find the corresponding timestamp!
Error: cannot find the corresponding timestamp!
Error: cannot find the corresponding timestamp!
Error: cannot find the corresponding timestamp!
Error: cannot find the corresponding timestamp!
Error: cannot find the corresponding timestamp!
Error: cannot find the corresponding timestamp!
Error: cannot find the corresponding timestamp!
Error: cannot find the corresponding timestamp!
Error: cannot find the corresponding timestamp!
Error: cannot find the corresponding timestamp!
Error: cannot find the corresponding timestamp!
Error: cannot find the corresponding timestamp!
Error: cannot find the corresponding timestamp!
Error: cannot find the corresponding timestamp!
Error: cannot find the corresponding timestamp!
Error: cannot find the corresponding timestamp!
Error: cannot find the corresponding timestamp!
Error: cannot find the corresponding timestamp!
Error: cannot find the corresponding timestamp!
Error: cannot find the corresponding timestamp!
Error: cannot find the corresponding timestamp!
Error: cannot find the corresponding timestamp!
Error: cannot find the corresponding timestamp!
Error: cannot find the corresponding timestamp!
Error: cannot find the corresponding timestamp!
Error: cannot find the corresponding timestamp!
Error: cannot find the corresponding timestamp!
Error: cannot find the corresponding timestamp!
Error: cannot find the corresponding timestamp!
Error: cannot find the corresponding timestamp!
Error: cannot find the corresponding timestamp!
Error: cannot find the corresponding timestamp!
Error: cannot find the corresponding timestamp!
Error: cannot find the corresponding timestamp!
Error: cannot find the corresponding timestamp!
Error: cannot find the corresponding timestamp!
Error: cannot find the corresponding timestamp!
Error: cannot find the corresponding timestamp!
Error: cannot find the corresponding timestamp!
Error: cannot find the corresponding timestamp!
Error: cannot find the corresponding timestamp!
Error: cannot find the corresponding timestamp!
Error: cannot find the corresponding timestamp!
Error: cannot find the corresponding timestamp!
Error: cannot find the corresponding timestamp!
Error: cannot find the corresponding timestamp!
Error: cannot find the corresponding timestamp!
Error: cannot find the corresponding timestamp!
Error: cannot find the corresponding timestamp!
Error: cannot find the corresponding timestamp!
Error: cannot find the corresponding timestamp!
Error: cannot find the corresponding timestamp!
Error: cannot find the corresponding timestamp!
Error: cannot find the corresponding timestamp!
Error: cannot find the corresponding timestamp!
Error: cannot find the corresponding timestamp!
Error: cannot find the corresponding timestamp!
Error: cannot find the corresponding timestamp!
Error: cannot find the corresponding timestamp!
Error: cannot find the corresponding timestamp!
Error: cannot find the corresponding timestamp!
Error: cannot find the corresponding timestamp!
Error: cannot find the corresponding timestamp!
Error: cannot find the corresponding timestamp!
Error: cannot find the corresponding timestamp!
Error: cannot find the corresponding timestamp!
Error: cannot find the corresponding timestamp!
Error: cannot find the corresponding timestamp!
Error: cannot find the corresponding timestamp!
Error: cannot find the corresponding timestamp!
Error: cannot find the corresponding timestamp!
Error: cannot find the corresponding timestamp!
Error: cannot find the corresponding timestamp!
Error: cannot find the corresponding timestamp!
Error: cannot find the corresponding timestamp!
Error: cannot find the corresponding timestamp!
Error: cannot find the corresponding timestamp!
Error: cannot find the corresponding timestamp!
Error: cannot find the corresponding timestamp!
Error: cannot find the corresponding timestamp!
Error: cannot find the corresponding timestamp!
Error: cannot find the corresponding timestamp!
Heartbeat CPU 0 instructions: 20000004 cycles: 5534982 heartbeat IPC: 3.57729 cumulative IPC: 3.61338 (Simulation time: 0 hr 16 min 13 sec) 
Error: cannot find the corresponding timestamp!
Error: cannot find the corresponding timestamp!
Error: cannot find the corresponding timestamp!
Error: cannot find the corresponding timestamp!
Error: cannot find the corresponding timestamp!
Error: cannot find the corresponding timestamp!
Error: cannot find the corresponding timestamp!
Error: cannot find the corresponding timestamp!
Error: cannot find the corresponding timestamp!
Error: cannot find the corresponding timestamp!
Error: cannot find the corresponding timestamp!
Error: cannot find the corresponding timestamp!
Error: cannot find the corresponding timestamp!
Error: cannot find the corresponding timestamp!
Error: cannot find the corresponding timestamp!
Error: cannot find the corresponding timestamp!
Error: cannot find the corresponding timestamp!
Error: cannot find the corresponding timestamp!
Error: cannot find the corresponding timestamp!
Error: cannot find the corresponding timestamp!
Error: cannot find the corresponding timestamp!
Error: cannot find the corresponding timestamp!
Error: cannot find the corresponding timestamp!
Error: cannot find the corresponding timestamp!
Error: cannot find the corresponding timestamp!
Error: cannot find the corresponding timestamp!
Error: cannot find the corresponding timestamp!
Error: cannot find the corresponding timestamp!
Error: cannot find the corresponding timestamp!
Error: cannot find the corresponding timestamp!
Error: cannot find the corresponding timestamp!
Error: cannot find the corresponding timestamp!
Error: cannot find the corresponding timestamp!
Error: cannot find the corresponding timestamp!
Error: cannot find the corresponding timestamp!
Error: cannot find the corresponding timestamp!
Error: cannot find the corresponding timestamp!
Error: cannot find the corresponding timestamp!
Error: cannot find the corresponding timestamp!
Error: cannot find the corresponding timestamp!
Error: cannot find the corresponding timestamp!
Error: cannot find the corresponding timestamp!
Error: cannot find the corresponding timestamp!
Error: cannot find the corresponding timestamp!
Error: cannot find the corresponding timestamp!
Error: cannot find the corresponding timestamp!
Error: cannot find the corresponding timestamp!
Error: cannot find the corresponding timestamp!
Error: cannot find the corresponding timestamp!
Error: cannot find the corresponding timestamp!
Error: cannot find the corresponding timestamp!
Error: cannot find the corresponding timestamp!
Error: cannot find the corresponding timestamp!
Error: cannot find the corresponding timestamp!
Error: cannot find the corresponding timestamp!
Error: cannot find the corresponding timestamp!
Error: cannot find the corresponding timestamp!
Error: cannot find the corresponding timestamp!
Error: cannot find the corresponding timestamp!
Error: cannot find the corresponding timestamp!
Error: cannot find the corresponding timestamp!
Error: cannot find the corresponding timestamp!
Error: cannot find the corresponding timestamp!
Error: cannot find the corresponding timestamp!
Error: cannot find the corresponding timestamp!
Error: cannot find the corresponding timestamp!
Error: cannot find the corresponding timestamp!
Error: cannot find the corresponding timestamp!
Error: cannot find the corresponding timestamp!
Error: cannot find the corresponding timestamp!
Error: cannot find the corresponding timestamp!
Error: cannot find the corresponding timestamp!
Error: cannot find the corresponding timestamp!
Error: cannot find the corresponding timestamp!
Error: cannot find the corresponding timestamp!
Error: cannot find the corresponding timestamp!
Error: cannot find the corresponding timestamp!
Error: cannot find the corresponding timestamp!
Error: cannot find the corresponding timestamp!
Error: cannot find the corresponding timestamp!
Error: cannot find the corresponding timestamp!
Error: cannot find the corresponding timestamp!
Error: cannot find the corresponding timestamp!
Error: cannot find the corresponding timestamp!
Error: cannot find the corresponding timestamp!
Error: cannot find the corresponding timestamp!
Error: cannot find the corresponding timestamp!
Error: cannot find the corresponding timestamp!
Error: cannot find the corresponding timestamp!
Error: cannot find the corresponding timestamp!
Error: cannot find the corresponding timestamp!
Error: cannot find the corresponding timestamp!
Error: cannot find the corresponding timestamp!
Error: cannot find the corresponding timestamp!
Error: cannot find the corresponding timestamp!
Error: cannot find the corresponding timestamp!
Error: cannot find the corresponding timestamp!
Error: cannot find the corresponding timestamp!
Error: cannot find the corresponding timestamp!
Error: cannot find the corresponding timestamp!
Error: cannot find the corresponding timestamp!
Error: cannot find the corresponding timestamp!
Error: cannot find the corresponding timestamp!
Error: cannot find the corresponding timestamp!
Error: cannot find the corresponding timestamp!
Error: cannot find the corresponding timestamp!
Error: cannot find the corresponding timestamp!
Error: cannot find the corresponding timestamp!
Error: cannot find the corresponding timestamp!
Error: cannot find the corresponding timestamp!
Error: cannot find the corresponding timestamp!
Error: cannot find the corresponding timestamp!
Error: cannot find the corresponding timestamp!
Error: cannot find the corresponding timestamp!
Error: cannot find the corresponding timestamp!
Error: cannot find the corresponding timestamp!
Error: cannot find the corresponding timestamp!
Error: cannot find the corresponding timestamp!
Error: cannot find the corresponding timestamp!
Error: cannot find the corresponding timestamp!
Error: cannot find the corresponding timestamp!
Error: cannot find the corresponding timestamp!
Error: cannot find the corresponding timestamp!
Error: cannot find the corresponding timestamp!
Error: cannot find the corresponding timestamp!
Error: cannot find the corresponding timestamp!
Error: cannot find the corresponding timestamp!
Error: cannot find the corresponding timestamp!
Error: cannot find the corresponding timestamp!
Error: cannot find the corresponding timestamp!
Error: cannot find the corresponding timestamp!
Error: cannot find the corresponding timestamp!
Error: cannot find the corresponding timestamp!
Error: cannot find the corresponding timestamp!
Error: cannot find the corresponding timestamp!
Error: cannot find the corresponding timestamp!
Error: cannot find the corresponding timestamp!
Error: cannot find the corresponding timestamp!
Error: cannot find the corresponding timestamp!
Error: cannot find the corresponding timestamp!
Error: cannot find the corresponding timestamp!
Error: cannot find the corresponding timestamp!
Error: cannot find the corresponding timestamp!
Error: cannot find the corresponding timestamp!
Error: cannot find the corresponding timestamp!
Error: cannot find the corresponding timestamp!
Error: cannot find the corresponding timestamp!
Error: cannot find the corresponding timestamp!
Error: cannot find the corresponding timestamp!
Error: cannot find the corresponding timestamp!
Error: cannot find the corresponding timestamp!
Error: cannot find the corresponding timestamp!
Error: cannot find the corresponding timestamp!
Error: cannot find the corresponding timestamp!
[...]
Error: cannot find the corresponding timestamp!
Error: cannot find the corresponding timestamp!
Error: cannot find the corresponding timestamp!
Error: cannot find the corresponding timestamp!
Error: cannot find the corresponding timestamp!
Error: cannot find the corresponding timestamp!
Error: cannot find the corresponding timestamp!
Error: cannot find the corresponding timestamp!
Error: cannot find the corresponding timestamp!
Error: cannot find the corresponding timestamp!
Error: cannot find the corresponding timestamp!
Error: cannot find the corresponding timestamp!
Error: cannot find the corresponding timestamp!
Error: cannot find the corresponding timestamp!
Error: cannot find the corresponding timestamp!
Error: cannot find the corresponding timestamp!
Error: cannot find the corresponding timestamp!
Error: cannot find the corresponding timestamp!
Error: cannot find the corresponding timestamp!
Error: cannot find the corresponding timestamp!
Error: cannot find the corresponding timestamp!
Error: cannot find the corresponding timestamp!
Error: cannot find the corresponding timestamp!
Error: cannot find the corresponding timestamp!
Error: cannot find the corresponding timestamp!
Error: cannot find the corresponding timestamp!
Error: cannot find the corresponding timestamp!
Error: cannot find the corresponding timestamp!
Error: cannot find the corresponding timestamp!
Error: cannot find the corresponding timestamp!
Error: cannot find the corresponding timestamp!
Error: cannot find the corresponding timestamp!
Error: cannot find the corresponding timestamp!
Error: cannot find the corresponding timestamp!
Error: cannot find the corresponding timestamp!
Error: cannot find the corresponding timestamp!
Error: cannot find the corresponding timestamp!
Error: cannot find the corresponding timestamp!
Error: cannot find the corresponding timestamp!
Error: cannot find the corresponding timestamp!
Error: cannot find the corresponding timestamp!
Error: cannot find the corresponding timestamp!
Error: cannot find the corresponding timestamp!
Error: cannot find the corresponding timestamp!
Error: cannot find the corresponding timestamp!
Error: cannot find the corresponding timestamp!
Error: cannot find the corresponding timestamp!
Error: cannot find the corresponding timestamp!
Error: cannot find the corresponding timestamp!
Error: cannot find the corresponding timestamp!
Error: cannot find the corresponding timestamp!
Error: cannot find the corresponding timestamp!
Error: cannot find the corresponding timestamp!
Error: cannot find the corresponding timestamp!
Error: cannot find the corresponding timestamp!
Error: cannot find the corresponding timestamp!
Error: cannot find the corresponding timestamp!
Error: cannot find the corresponding timestamp!
Error: cannot find the corresponding timestamp!
Error: cannot find the corresponding timestamp!
Error: cannot find the corresponding timestamp!
Error: cannot find the corresponding timestamp!
Error: cannot find the corresponding timestamp!
Error: cannot find the corresponding timestamp!
Error: cannot find the corresponding timestamp!
Error: cannot find the corresponding timestamp!
Error: cannot find the corresponding timestamp!
Error: cannot find the corresponding timestamp!
Error: cannot find the corresponding timestamp!
Error: cannot find the corresponding timestamp!
Error: cannot find the corresponding timestamp!
Error: cannot find the corresponding timestamp!
Error: cannot find the corresponding timestamp!
Error: cannot find the corresponding timestamp!
Error: cannot find the corresponding timestamp!
Error: cannot find the corresponding timestamp!
Error: cannot find the corresponding timestamp!
Error: cannot find the corresponding timestamp!
Error: cannot find the corresponding timestamp!
Error: cannot find the corresponding timestamp!
Error: cannot find the corresponding timestamp!
Error: cannot find the corresponding timestamp!
Error: cannot find the corresponding timestamp!
Error: cannot find the corresponding timestamp!
Error: cannot find the corresponding timestamp!
Error: cannot find the corresponding timestamp!
Error: cannot find the corresponding timestamp!
Error: cannot find the corresponding timestamp!
Error: cannot find the corresponding timestamp!
Error: cannot find the corresponding timestamp!
Error: cannot find the corresponding timestamp!
Error: cannot find the corresponding timestamp!
Error: cannot find the corresponding timestamp!
Error: cannot find the corresponding timestamp!
Error: cannot find the corresponding timestamp!
Error: cannot find the corresponding timestamp!
Error: cannot find the corresponding timestamp!
Error: cannot find the corresponding timestamp!
Error: cannot find the corresponding timestamp!
Error: cannot find the corresponding timestamp!
Error: cannot find the corresponding timestamp!
Error: cannot find the corresponding timestamp!
Error: cannot find the corresponding timestamp!
Error: cannot find the corresponding timestamp!
Error: cannot find the corresponding timestamp!
Error: cannot find the corresponding timestamp!
Error: cannot find the corresponding timestamp!
Error: cannot find the corresponding timestamp!
Error: cannot find the corresponding timestamp!
Error: cannot find the corresponding timestamp!
Error: cannot find the corresponding timestamp!
Error: cannot find the corresponding timestamp!
Error: cannot find the corresponding timestamp!
Error: cannot find the corresponding timestamp!
Error: cannot find the corresponding timestamp!
Error: cannot find the corresponding timestamp!
Error: cannot find the corresponding timestamp!
Error: cannot find the corresponding timestamp!
Error: cannot find the corresponding timestamp!
Error: cannot find the corresponding timestamp!
Error: cannot find the corresponding timestamp!
Error: cannot find the corresponding timestamp!
Error: cannot find the corresponding timestamp!
Error: cannot find the corresponding timestamp!
Error: cannot find the corresponding timestamp!
Error: cannot find the corresponding timestamp!
Error: cannot find the corresponding timestamp!
Error: cannot find the corresponding timestamp!
Error: cannot find the corresponding timestamp!
Error: cannot find the corresponding timestamp!
Error: cannot find the corresponding timestamp!
Error: cannot find the corresponding timestamp!
Error: cannot find the corresponding timestamp!
Error: cannot find the corresponding timestamp!
Error: cannot find the corresponding timestamp!
Error: cannot find the corresponding timestamp!
Error: cannot find the corresponding timestamp!
Error: cannot find the corresponding timestamp!
Error: cannot find the corresponding timestamp!
Error: cannot find the corresponding timestamp!
Error: cannot find the corresponding timestamp!
Error: cannot find the corresponding timestamp!
Error: cannot find the corresponding timestamp!
Error: cannot find the corresponding timestamp!
Error: cannot find the corresponding timestamp!
Error: cannot find the corresponding timestamp!
Error: cannot find the corresponding timestamp!
Error: cannot find the corresponding timestamp!
Error: cannot find the corresponding timestamp!
Error: cannot find the corresponding timestamp!
Error: cannot find the corresponding timestamp!
Error: cannot find the corresponding timestamp!
Error: cannot find the corresponding timestamp!
Error: cannot find the corresponding timestamp!
Error: cannot find the corresponding timestamp!
Error: cannot find the corresponding timestamp!
Error: cannot find the corresponding timestamp!
Error: cannot find the corresponding timestamp!
Error: cannot find the corresponding timestamp!
Error: cannot find the corresponding timestamp!
Error: cannot find the corresponding timestamp!
Error: cannot find the corresponding timestamp!
Error: cannot find the corresponding timestamp!
Error: cannot find the corresponding timestamp!
Error: cannot find the corresponding timestamp!
Error: cannot find the corresponding timestamp!
Error: cannot find the corresponding timestamp!
Error: cannot find the corresponding timestamp!
Error: cannot find the corresponding timestamp!
Error: cannot find the corresponding timestamp!
Error: cannot find the corresponding timestamp!
Error: cannot find the corresponding timestamp!
Error: cannot find the corresponding timestamp!
Error: cannot find the corresponding timestamp!
Error: cannot find the corresponding timestamp!
Error: cannot find the corresponding timestamp!
Error: cannot find the corresponding timestamp!
Error: cannot find the corresponding timestamp!
Error: cannot find the corresponding timestamp!
Error: cannot find the corresponding timestamp!
Error: cannot find the corresponding timestamp!
Error: cannot find the corresponding timestamp!
Error: cannot find the corresponding timestamp!
Error: cannot find the corresponding timestamp!
Error: cannot find the corresponding timestamp!
Error: cannot find the corresponding timestamp!
Error: cannot find the corresponding timestamp!
Error: cannot find the corresponding timestamp!
Error: cannot find the corresponding timestamp!
Error: cannot find the corresponding timestamp!
Error: cannot find the corresponding timestamp!
Error: cannot find the corresponding timestamp!
Error: cannot find the corresponding timestamp!
Error: cannot find the corresponding timestamp!
Error: cannot find the corresponding timestamp!
Error: cannot find the corresponding timestamp!
Error: cannot find the corresponding timestamp!
Error: cannot find the corresponding timestamp!
Error: cannot find the corresponding timestamp!
Error: cannot find the corresponding timestamp!
Error: cannot find the corresponding timestamp!
Error: cannot find the corresponding timestamp!
Error: cannot find the corresponding timestamp!
Error: cannot find the corresponding timestamp!
Error: cannot find the corresponding timestamp!
Error: cannot find the corresponding timestamp!
Error: cannot find the corresponding timestamp!
Error: cannot find the corresponding timestamp!
Error: cannot find the corresponding timestamp!
Error: cannot find the corresponding timestamp!
Error: cannot find the corresponding timestamp!
Error: cannot find the corresponding timestamp!
Error: cannot find the corresponding timestamp!
Error: cannot find the corresponding timestamp!
Error: cannot find the corresponding timestamp!
Error: cannot find the corresponding timestamp!
Error: cannot find the corresponding timestamp!
Error: cannot find the corresponding timestamp!
Error: cannot find the corresponding timestamp!
Error: cannot find the corresponding timestamp!
Error: cannot find the corresponding timestamp!
Error: cannot find the corresponding timestamp!
Error: cannot find the corresponding timestamp!
Error: cannot find the corresponding timestamp!
Error: cannot find the corresponding timestamp!
Error: cannot find the corresponding timestamp!
Error: cannot find the corresponding timestamp!
Error: cannot find the corresponding timestamp!
Error: cannot find the corresponding timestamp!
Error: cannot find the corresponding timestamp!
Error: cannot find the corresponding timestamp!
Error: cannot find the corresponding timestamp!
Error: cannot find the corresponding timestamp!
Error: cannot find the corresponding timestamp!
Error: cannot find the corresponding timestamp!
Error: cannot find the corresponding timestamp!
Error: cannot find the corresponding timestamp!
Error: cannot find the corresponding timestamp!
Error: cannot find the corresponding timestamp!
Error: cannot find the corresponding timestamp!
Error: cannot find the corresponding timestamp!
Error: cannot find the corresponding timestamp!
Error: cannot find the corresponding timestamp!
Error: cannot find the corresponding timestamp!
Error: cannot find the corresponding timestamp!
Error: cannot find the corresponding timestamp!
Error: cannot find the corresponding timestamp!
Error: cannot find the corresponding timestamp!
Error: cannot find the corresponding timestamp!
Error: cannot find the corresponding timestamp!
Error: cannot find the corresponding timestamp!
Error: cannot find the corresponding timestamp!
Error: cannot find the corresponding timestamp!
Error: cannot find the corresponding timestamp!
Error: cannot find the corresponding timestamp!
Error: cannot find the corresponding timestamp!
Error: cannot find the corresponding timestamp!
Error: cannot find the corresponding timestamp!
Error: cannot find the corresponding timestamp!
Error: cannot find the corresponding timestamp!
Error: cannot find the corresponding timestamp!
Error: cannot find the corresponding timestamp!
Error: cannot find the corresponding timestamp!
Error: cannot find the corresponding timestamp!
Error: cannot find the corresponding timestamp!
Error: cannot find the corresponding timestamp!
Error: cannot find the corresponding timestamp!
Error: cannot find the corresponding timestamp!
Error: cannot find the corresponding timestamp!
Error: cannot find the corresponding timestamp!
Error: cannot find the corresponding timestamp!
Error: cannot find the corresponding timestamp!
Error: cannot find the corresponding timestamp!
Error: cannot find the corresponding timestamp!
Error: cannot find the corresponding timestamp!
Error: cannot find the corresponding timestamp!
Error: cannot find the corresponding timestamp!
Error: cannot find the corresponding timestamp!
Error: cannot find the corresponding timestamp!
Error: cannot find the corresponding timestamp!
Error: cannot find the corresponding timestamp!
Error: cannot find the corresponding timestamp!
Error: cannot find the corresponding timestamp!
Error: cannot find the corresponding timestamp!
Error: cannot find the corresponding timestamp!
Error: cannot find the corresponding timestamp!
Error: cannot find the corresponding timestamp!
Error: cannot find the corresponding timestamp!
Error: cannot find the corresponding timestamp!
Error: cannot find the corresponding timestamp!
Error: cannot find the corresponding timestamp!
Error: cannot find the corresponding timestamp!
Error: cannot find the corresponding timestamp!
Error: cannot find the corresponding timestamp!
Error: cannot find the corresponding timestamp!
Error: cannot find the corresponding timestamp!
Error: cannot find the corresponding timestamp!
Error: cannot find the corresponding timestamp!
Error: cannot find the corresponding timestamp!
Error: cannot find the corresponding timestamp!
Error: cannot find the corresponding timestamp!
Error: cannot find the corresponding timestamp!
Error: cannot find the corresponding timestamp!
Error: cannot find the corresponding timestamp!
Error: cannot find the corresponding timestamp!
Error: cannot find the corresponding timestamp!
Error: cannot find the corresponding timestamp!
Error: cannot find the corresponding timestamp!
Error: cannot find the corresponding timestamp!
Error: cannot find the corresponding timestamp!
Error: cannot find the corresponding timestamp!
Error: cannot find the corresponding timestamp!
Error: cannot find the corresponding timestamp!
Error: cannot find the corresponding timestamp!
Error: cannot find the corresponding timestamp!
Error: cannot find the corresponding timestamp!
Error: cannot find the corresponding timestamp!
Error: cannot find the corresponding timestamp!
Error: cannot find the corresponding timestamp!
Error: cannot find the corresponding timestamp!
Error: cannot find the corresponding timestamp!
Error: cannot find the corresponding timestamp!
Error: cannot find the corresponding timestamp!
Error: cannot find the corresponding timestamp!
Error: cannot find the corresponding timestamp!
Error: cannot find the corresponding timestamp!
Error: cannot find the corresponding timestamp!
Error: cannot find the corresponding timestamp!
Error: cannot find the corresponding timestamp!
Error: cannot find the corresponding timestamp!
Error: cannot find the corresponding timestamp!
Error: cannot find the corresponding timestamp!
Error: cannot find the corresponding timestamp!
Error: cannot find the corresponding timestamp!
Error: cannot find the corresponding timestamp!
Error: cannot find the corresponding timestamp!
Error: cannot find the corresponding timestamp!
Error: cannot find the corresponding timestamp!
Error: cannot find the corresponding timestamp!
Error: cannot find the corresponding timestamp!
Error: cannot find the corresponding timestamp!
Error: cannot find the corresponding timestamp!
Error: cannot find the corresponding timestamp!
Error: cannot find the corresponding timestamp!
Error: cannot find the corresponding timestamp!
Error: cannot find the corresponding timestamp!
Error: cannot find the corresponding timestamp!
Error: cannot find the corresponding timestamp!
Error: cannot find the corresponding timestamp!
Error: cannot find the corresponding timestamp!
Error: cannot find the corresponding timestamp!
Error: cannot find the corresponding timestamp!
Error: cannot find the corresponding timestamp!
Error: cannot find the corresponding timestamp!
Error: cannot find the corresponding timestamp!
Error: cannot find the corresponding timestamp!
Error: cannot find the corresponding timestamp!
Heartbeat CPU 0 instructions: 100000002 cycles: 48512226 heartbeat IPC: 1.4165 cumulative IPC: 1.44597 (Simulation time: 1 hr 5 min 1 sec) 
Finished CPU 0 instructions: 50000001 cycles: 34578857 cumulative IPC: 1.44597 (Simulation time: 1 hr 5 min 1 sec) 

ChampSim completed all CPUs

Region of Interest Statistics

CPU 0 cumulative IPC: 1.44597 instructions: 50000001 cycles: 34578857
L1D TOTAL     ACCESS:   12351581  HIT:   11482311  MISS:     869270
L1D LOAD      ACCESS:    7610124  HIT:    6857949  MISS:     752175
L1D RFO       ACCESS:    4741457  HIT:    4624362  MISS:     117095
L1D PREFETCH  ACCESS:          0  HIT:          0  MISS:          0
L1D WRITEBACK ACCESS:          0  HIT:          0  MISS:          0
L1D PREFETCH  REQUESTED:          0  ISSUED:          0  USEFUL:          0  USELESS:          0
L1D AVERAGE MISS LATENCY: 42.7236 cycles
L1I TOTAL     ACCESS:   14109562  HIT:   13399165  MISS:     710397
L1I LOAD      ACCESS:    3476619  HIT:    3135997  MISS:     340622
L1I RFO       ACCESS:          0  HIT:          0  MISS:          0
L1I PREFETCH  ACCESS:   10632943  HIT:   10263168  MISS:     369775
L1I WRITEBACK ACCESS:          0  HIT:          0  MISS:          0
L1I PREFETCH  REQUESTED:   15204419  ISSUED:   15204339  USEFUL:     353670  USELESS:      16132
L1I AVERAGE MISS LATENCY: 9.31258 cycles
L2C TOTAL     ACCESS:    1747643  HIT:    1434557  MISS:     313086
L2C LOAD      ACCESS:     879611  HIT:     693987  MISS:     185624
L2C RFO       ACCESS:     117093  HIT:      14452  MISS:     102641
L2C PREFETCH  ACCESS:     582952  HIT:     558605  MISS:      24347
L2C WRITEBACK ACCESS:     167987  HIT:     167513  MISS:        474
L2C PREFETCH  REQUESTED:          0  ISSUED:          0  USEFUL:      12967  USELESS:      12192
L2C AVERAGE MISS LATENCY: 94.98 cycles
LLC TOTAL     ACCESS:     441882  HIT:     296909  MISS:     144973
LLC LOAD      ACCESS:     185617  HIT:     141096  MISS:      44521
LLC RFO       ACCESS:     102640  HIT:       9473  MISS:      93167
LLC PREFETCH  ACCESS:      24347  HIT:      17265  MISS:       7082
LLC WRITEBACK ACCESS:     129278  HIT:     129075  MISS:        203
LLC PREFETCH  REQUESTED:          0  ISSUED:          0  USEFUL:       2255  USELESS:       6026
LLC AVERAGE MISS LATENCY: 161.99 cycles
CPU 0 L1I FDIP final stats

DRAM Statistics
 CHANNEL 0
 RQ ROW_BUFFER_HIT:      37761  ROW_BUFFER_MISS:     106990
 DBUS_CONGESTED:      83356
 WQ ROW_BUFFER_HIT:      25183  ROW_BUFFER_MISS:      60592  FULL:          0

 AVG_CONGESTED_CYCLE: 6

CPU 0 Branch Prediction Accuracy: 95.1708% MPKI: 11.2715 Average ROB Occupancy at Mispredict: 191.045
Branch type MPKI
BRANCH_DIRECT_JUMP: 0.02074
BRANCH_INDIRECT: 1.26656
BRANCH_CONDITIONAL: 7.19434
BRANCH_DIRECT_CALL: 0.03678
BRANCH_INDIRECT_CALL: 2.73406
BRANCH_RETURN: 0.01904

