
VirtualMemory physical capacity: 8589934592 num_ppages: 2097152
VirtualMemory page size: 4096 log2_page_size: 12
VirtualMemory initalizing ppage free list ... done
VirtualMemory shuffling ppage free list ... done

 (TOTAL 523355 bits 511 Kbits) 
*** ChampSim Multicore Out-of-Order Simulator ***

Warmup Instructions: 50000000
Simulation Instructions: 50000000
Number of CPUs: 1
LLC sets: 2048
LLC ways: 16
Off-chip DRAM Size: 4096 MB Channels: 1 Width: 64-bit Data Rate: 3200 MT/s

CPU 0 runs /home/isaachywong/champsim-pt/ipc1_public/server_011.champsimtrace.xz
CPU 0 Tage branch predictor
CPU 0 L1I FDIP
Basic BTB sets: 2048 ways: 4 indirect buffer size: 4096 RAS size: 32
Error: cannot find the corresponding timestamp!
Error: cannot find the corresponding timestamp!
Error: cannot find the corresponding timestamp!
Error: cannot find the corresponding timestamp!
Error: cannot find the corresponding timestamp!
Error: cannot find the corresponding timestamp!
Error: cannot find the corresponding timestamp!
Error: cannot find the corresponding timestamp!
Error: cannot find the corresponding timestamp!
Error: cannot find the corresponding timestamp!
Error: cannot find the corresponding timestamp!
Error: cannot find the corresponding timestamp!
Error: cannot find the corresponding timestamp!
Error: cannot find the corresponding timestamp!
Error: cannot find the corresponding timestamp!
Error: cannot find the corresponding timestamp!
Error: cannot find the corresponding timestamp!
Error: cannot find the corresponding timestamp!
Error: cannot find the corresponding timestamp!
Error: cannot find the corresponding timestamp!
Error: cannot find the corresponding timestamp!
Error: cannot find the corresponding timestamp!
Error: cannot find the corresponding timestamp!
Error: cannot find the corresponding timestamp!
Error: cannot find the corresponding timestamp!
Error: cannot find the corresponding timestamp!
Error: cannot find the corresponding timestamp!
Heartbeat CPU 0 instructions: 10000003 cycles: 2086051 heartbeat IPC: 4.79375 cumulative IPC: 4.79375 (Simulation time: 0 hr 6 min 14 sec) 
Error: cannot find the corresponding timestamp!
Error: cannot find the corresponding timestamp!
Error: cannot find the corresponding timestamp!
Error: cannot find the corresponding timestamp!
Error: cannot find the corresponding timestamp!
Error: cannot find the corresponding timestamp!
Error: cannot find the corresponding timestamp!
Error: cannot find the corresponding timestamp!
Error: cannot find the corresponding timestamp!
Error: cannot find the corresponding timestamp!
Error: cannot find the corresponding timestamp!
Error: cannot find the corresponding timestamp!
Error: cannot find the corresponding timestamp!
Error: cannot find the corresponding timestamp!
Error: cannot find the corresponding timestamp!
Error: cannot find the corresponding timestamp!
Error: cannot find the corresponding timestamp!
Error: cannot find the corresponding timestamp!
Error: cannot find the corresponding timestamp!
Error: cannot find the corresponding timestamp!
Error: cannot find the corresponding timestamp!
Error: cannot find the corresponding timestamp!
Error: cannot find the corresponding timestamp!
Error: cannot find the corresponding timestamp!
Error: cannot find the corresponding timestamp!
Error: cannot find the corresponding timestamp!
Error: cannot find the corresponding timestamp!
Error: cannot find the corresponding timestamp!
Error: cannot find the corresponding timestamp!
Error: cannot find the corresponding timestamp!
Error: cannot find the corresponding timestamp!
Error: cannot find the corresponding timestamp!
Error: cannot find the corresponding timestamp!
Error: cannot find the corresponding timestamp!
Error: cannot find the corresponding timestamp!
Error: cannot find the corresponding timestamp!
Error: cannot find the corresponding timestamp!
Error: cannot find the corresponding timestamp!
Error: cannot find the corresponding timestamp!
Error: cannot find the corresponding timestamp!
Error: cannot find the corresponding timestamp!
Error: cannot find the corresponding timestamp!
Error: cannot find the corresponding timestamp!
Error: cannot find the corresponding timestamp!
Error: cannot find the corresponding timestamp!
Error: cannot find the corresponding timestamp!
Error: cannot find the corresponding timestamp!
Error: cannot find the corresponding timestamp!
Error: cannot find the corresponding timestamp!
Error: cannot find the corresponding timestamp!
Error: cannot find the corresponding timestamp!
Error: cannot find the corresponding timestamp!
Error: cannot find the corresponding timestamp!
Error: cannot find the corresponding timestamp!
Error: cannot find the corresponding timestamp!
Error: cannot find the corresponding timestamp!
Error: cannot find the corresponding timestamp!
Error: cannot find the corresponding timestamp!
Error: cannot find the corresponding timestamp!
Error: cannot find the corresponding timestamp!
Error: cannot find the corresponding timestamp!
Error: cannot find the corresponding timestamp!
Error: cannot find the corresponding timestamp!
Error: cannot find the corresponding timestamp!
Error: cannot find the corresponding timestamp!
Error: cannot find the corresponding timestamp!
Error: cannot find the corresponding timestamp!
Error: cannot find the corresponding timestamp!
Error: cannot find the corresponding timestamp!
Error: cannot find the corresponding timestamp!
Error: cannot find the corresponding timestamp!
Error: cannot find the corresponding timestamp!
Error: cannot find the corresponding timestamp!
Error: cannot find the corresponding timestamp!
Error: cannot find the corresponding timestamp!
Error: cannot find the corresponding timestamp!
Error: cannot find the corresponding timestamp!
Error: cannot find the corresponding timestamp!
Error: cannot find the corresponding timestamp!
Error: cannot find the corresponding timestamp!
Error: cannot find the corresponding timestamp!
Error: cannot find the corresponding timestamp!
Error: cannot find the corresponding timestamp!
Error: cannot find the corresponding timestamp!
Error: cannot find the corresponding timestamp!
Error: cannot find the corresponding timestamp!
Error: cannot find the corresponding timestamp!
Error: cannot find the corresponding timestamp!
Error: cannot find the corresponding timestamp!
Error: cannot find the corresponding timestamp!
Error: cannot find the corresponding timestamp!
Error: cannot find the corresponding timestamp!
Error: cannot find the corresponding timestamp!
Error: cannot find the corresponding timestamp!
Error: cannot find the corresponding timestamp!
Error: cannot find the corresponding timestamp!
Error: cannot find the corresponding timestamp!
Error: cannot find the corresponding timestamp!
Error: cannot find the corresponding timestamp!
Error: cannot find the corresponding timestamp!
Error: cannot find the corresponding timestamp!
Error: cannot find the corresponding timestamp!
Error: cannot find the corresponding timestamp!
Error: cannot find the corresponding timestamp!
Error: cannot find the corresponding timestamp!
Error: cannot find the corresponding timestamp!
Error: cannot find the corresponding timestamp!
Error: cannot find the corresponding timestamp!
Error: cannot find the corresponding timestamp!
Error: cannot find the corresponding timestamp!
Error: cannot find the corresponding timestamp!
Error: cannot find the corresponding timestamp!
Error: cannot find the corresponding timestamp!
Error: cannot find the corresponding timestamp!
Error: cannot find the corresponding timestamp!
Error: cannot find the corresponding timestamp!
Error: cannot find the corresponding timestamp!
Error: cannot find the corresponding timestamp!
Error: cannot find the corresponding timestamp!
Error: cannot find the corresponding timestamp!
Error: cannot find the corresponding timestamp!
Error: cannot find the corresponding timestamp!
Error: cannot find the corresponding timestamp!
Error: cannot find the corresponding timestamp!
Error: cannot find the corresponding timestamp!
Error: cannot find the corresponding timestamp!
Error: cannot find the corresponding timestamp!
Error: cannot find the corresponding timestamp!
Error: cannot find the corresponding timestamp!
Error: cannot find the corresponding timestamp!
Error: cannot find the corresponding timestamp!
Error: cannot find the corresponding timestamp!
Error: cannot find the corresponding timestamp!
Error: cannot find the corresponding timestamp!
Error: cannot find the corresponding timestamp!
Error: cannot find the corresponding timestamp!
Error: cannot find the corresponding timestamp!
Error: cannot find the corresponding timestamp!
Error: cannot find the corresponding timestamp!
Error: cannot find the corresponding timestamp!
Error: cannot find the corresponding timestamp!
Error: cannot find the corresponding timestamp!
Error: cannot find the corresponding timestamp!
Error: cannot find the corresponding timestamp!
Error: cannot find the corresponding timestamp!
Error: cannot find the corresponding timestamp!
Error: cannot find the corresponding timestamp!
Error: cannot find the corresponding timestamp!
Error: cannot find the corresponding timestamp!
Error: cannot find the corresponding timestamp!
Error: cannot find the corresponding timestamp!
Error: cannot find the corresponding timestamp!
Error: cannot find the corresponding timestamp!
Error: cannot find the corresponding timestamp!
Error: cannot find the corresponding timestamp!
Error: cannot find the corresponding timestamp!
Error: cannot find the corresponding timestamp!
Error: cannot find the corresponding timestamp!
Error: cannot find the corresponding timestamp!
Error: cannot find the corresponding timestamp!
Error: cannot find the corresponding timestamp!
Error: cannot find the corresponding timestamp!
Error: cannot find the corresponding timestamp!
Error: cannot find the corresponding timestamp!
Error: cannot find the corresponding timestamp!
Error: cannot find the corresponding timestamp!
Error: cannot find the corresponding timestamp!
Error: cannot find the corresponding timestamp!
Error: cannot find the corresponding timestamp!
Error: cannot find the corresponding timestamp!
Error: cannot find the corresponding timestamp!
Error: cannot find the corresponding timestamp!
Error: cannot find the corresponding timestamp!
Error: cannot find the corresponding timestamp!
Error: cannot find the corresponding timestamp!
Error: cannot find the corresponding timestamp!
Error: cannot find the corresponding timestamp!
Error: cannot find the corresponding timestamp!
Error: cannot find the corresponding timestamp!
Error: cannot find the corresponding timestamp!
Error: cannot find the corresponding timestamp!
Error: cannot find the corresponding timestamp!
Error: cannot find the corresponding timestamp!
Error: cannot find the corresponding timestamp!
Error: cannot find the corresponding timestamp!
Error: cannot find the corresponding timestamp!
Error: cannot find the corresponding timestamp!
Error: cannot find the corresponding timestamp!
Error: cannot find the corresponding timestamp!
Error: cannot find the corresponding timestamp!
Error: cannot find the corresponding timestamp!
Error: cannot find the corresponding timestamp!
Error: cannot find the corresponding timestamp!
Error: cannot find the corresponding timestamp!
Error: cannot find the corresponding timestamp!
Error: cannot find the corresponding timestamp!
Error: cannot find the corresponding timestamp!
Error: cannot find the corresponding timestamp!
Error: cannot find the corresponding timestamp!
Error: cannot find the corresponding timestamp!
Error: cannot find the corresponding timestamp!
Error: cannot find the corresponding timestamp!
Error: cannot find the corresponding timestamp!
Error: cannot find the corresponding timestamp!
Error: cannot find the corresponding timestamp!
Error: cannot find the corresponding timestamp!
Error: cannot find the corresponding timestamp!
Error: cannot find the corresponding timestamp!
Error: cannot find the corresponding timestamp!
Error: cannot find the corresponding timestamp!
Error: cannot find the corresponding timestamp!
Error: cannot find the corresponding timestamp!
Error: cannot find the corresponding timestamp!
Error: cannot find the corresponding timestamp!
Error: cannot find the corresponding timestamp!
Error: cannot find the corresponding timestamp!
Error: cannot find the corresponding timestamp!
Error: cannot find the corresponding timestamp!
Error: cannot find the corresponding timestamp!
Error: cannot find the corresponding timestamp!
Error: cannot find the corresponding timestamp!
Error: cannot find the corresponding timestamp!
Error: cannot find the corresponding timestamp!
Error: cannot find the corresponding timestamp!
Error: cannot find the corresponding timestamp!
Error: cannot find the corresponding timestamp!
Error: cannot find the corresponding timestamp!
Error: cannot find the corresponding timestamp!
Error: cannot find the corresponding timestamp!
Error: cannot find the corresponding timestamp!
Error: cannot find the corresponding timestamp!
Error: cannot find the corresponding timestamp!
Error: cannot find the corresponding timestamp!
Error: cannot find the corresponding timestamp!
Error: cannot find the corresponding timestamp!
Error: cannot find the corresponding timestamp!
Error: cannot find the corresponding timestamp!
Error: cannot find the corresponding timestamp!
Error: cannot find the corresponding timestamp!
Error: cannot find the corresponding timestamp!
Error: cannot find the corresponding timestamp!
Error: cannot find the corresponding timestamp!
Error: cannot find the corresponding timestamp!
Error: cannot find the corresponding timestamp!
Error: cannot find the corresponding timestamp!
Error: cannot find the corresponding timestamp!
Error: cannot find the corresponding timestamp!
Error: cannot find the corresponding timestamp!
Error: cannot find the corresponding timestamp!
Error: cannot find the corresponding timestamp!
Error: cannot find the corresponding timestamp!
Error: cannot find the corresponding timestamp!
Error: cannot find the corresponding timestamp!
Error: cannot find the corresponding timestamp!
Error: cannot find the corresponding timestamp!
Error: cannot find the corresponding timestamp!
Error: cannot find the corresponding timestamp!
Error: cannot find the corresponding timestamp!
Heartbeat CPU 0 instructions: 20000000 cycles: 4175619 heartbeat IPC: 4.78568 cumulative IPC: 4.78971 (Simulation time: 0 hr 12 min 16 sec) 
Error: cannot find the corresponding timestamp!
Error: cannot find the corresponding timestamp!
Error: cannot find the corresponding timestamp!
Error: cannot find the corresponding timestamp!
Error: cannot find the corresponding timestamp!
Error: cannot find the corresponding timestamp!
Error: cannot find the corresponding timestamp!
Error: cannot find the corresponding timestamp!
Error: cannot find the corresponding timestamp!
Error: cannot find the corresponding timestamp!
Error: cannot find the corresponding timestamp!
Error: cannot find the corresponding timestamp!
Error: cannot find the corresponding timestamp!
Error: cannot find the corresponding timestamp!
Error: cannot find the corresponding timestamp!
Error: cannot find the corresponding timestamp!
Error: cannot find the corresponding timestamp!
Error: cannot find the corresponding timestamp!
Error: cannot find the corresponding timestamp!
Error: cannot find the corresponding timestamp!
Error: cannot find the corresponding timestamp!
Error: cannot find the corresponding timestamp!
Error: cannot find the corresponding timestamp!
Error: cannot find the corresponding timestamp!
Error: cannot find the corresponding timestamp!
Error: cannot find the corresponding timestamp!
Error: cannot find the corresponding timestamp!
Error: cannot find the corresponding timestamp!
Error: cannot find the corresponding timestamp!
Error: cannot find the corresponding timestamp!
Error: cannot find the corresponding timestamp!
Error: cannot find the corresponding timestamp!
Error: cannot find the corresponding timestamp!
Error: cannot find the corresponding timestamp!
Error: cannot find the corresponding timestamp!
Error: cannot find the corresponding timestamp!
Error: cannot find the corresponding timestamp!
Error: cannot find the corresponding timestamp!
Error: cannot find the corresponding timestamp!
Error: cannot find the corresponding timestamp!
Error: cannot find the corresponding timestamp!
Error: cannot find the corresponding timestamp!
Error: cannot find the corresponding timestamp!
Error: cannot find the corresponding timestamp!
Error: cannot find the corresponding timestamp!
Error: cannot find the corresponding timestamp!
Error: cannot find the corresponding timestamp!
Error: cannot find the corresponding timestamp!
Error: cannot find the corresponding timestamp!
Error: cannot find the corresponding timestamp!
Error: cannot find the corresponding timestamp!
Error: cannot find the corresponding timestamp!
Error: cannot find the corresponding timestamp!
Error: cannot find the corresponding timestamp!
Error: cannot find the corresponding timestamp!
Error: cannot find the corresponding timestamp!
Error: cannot find the corresponding timestamp!
Error: cannot find the corresponding timestamp!
Error: cannot find the corresponding timestamp!
Error: cannot find the corresponding timestamp!
Error: cannot find the corresponding timestamp!
Error: cannot find the corresponding timestamp!
Error: cannot find the corresponding timestamp!
Error: cannot find the corresponding timestamp!
Error: cannot find the corresponding timestamp!
Error: cannot find the corresponding timestamp!
Error: cannot find the corresponding timestamp!
Error: cannot find the corresponding timestamp!
Error: cannot find the corresponding timestamp!
Error: cannot find the corresponding timestamp!
Error: cannot find the corresponding timestamp!
Error: cannot find the corresponding timestamp!
Error: cannot find the corresponding timestamp!
Error: cannot find the corresponding timestamp!
Error: cannot find the corresponding timestamp!
Error: cannot find the corresponding timestamp!
Error: cannot find the corresponding timestamp!
Error: cannot find the corresponding timestamp!
Error: cannot find the corresponding timestamp!
Error: cannot find the corresponding timestamp!
Error: cannot find the corresponding timestamp!
Error: cannot find the corresponding timestamp!
Error: cannot find the corresponding timestamp!
Error: cannot find the corresponding timestamp!
Error: cannot find the corresponding timestamp!
Error: cannot find the corresponding timestamp!
Error: cannot find the corresponding timestamp!
Error: cannot find the corresponding timestamp!
Error: cannot find the corresponding timestamp!
Error: cannot find the corresponding timestamp!
Error: cannot find the corresponding timestamp!
Error: cannot find the corresponding timestamp!
Error: cannot find the corresponding timestamp!
Error: cannot find the corresponding timestamp!
Error: cannot find the corresponding timestamp!
Error: cannot find the corresponding timestamp!
Error: cannot find the corresponding timestamp!
Error: cannot find the corresponding timestamp!
Error: cannot find the corresponding timestamp!
Error: cannot find the corresponding timestamp!
Error: cannot find the corresponding timestamp!
Error: cannot find the corresponding timestamp!
Error: cannot find the corresponding timestamp!
Error: cannot find the corresponding timestamp!
Error: cannot find the corresponding timestamp!
Error: cannot find the corresponding timestamp!
Error: cannot find the corresponding timestamp!
Error: cannot find the corresponding timestamp!
Error: cannot find the corresponding timestamp!
Error: cannot find the corresponding timestamp!
Error: cannot find the corresponding timestamp!
Error: cannot find the corresponding timestamp!
Error: cannot find the corresponding timestamp!
Error: cannot find the corresponding timestamp!
Error: cannot find the corresponding timestamp!
Error: cannot find the corresponding timestamp!
Error: cannot find the corresponding timestamp!
Error: cannot find the corresponding timestamp!
Error: cannot find the corresponding timestamp!
Error: cannot find the corresponding timestamp!
Error: cannot find the corresponding timestamp!
Error: cannot find the corresponding timestamp!
Error: cannot find the corresponding timestamp!
Error: cannot find the corresponding timestamp!
Error: cannot find the corresponding timestamp!
Error: cannot find the corresponding timestamp!
Error: cannot find the corresponding timestamp!
Error: cannot find the corresponding timestamp!
Error: cannot find the corresponding timestamp!
Error: cannot find the corresponding timestamp!
Error: cannot find the corresponding timestamp!
Error: cannot find the corresponding timestamp!
Error: cannot find the corresponding timestamp!
Error: cannot find the corresponding timestamp!
Error: cannot find the corresponding timestamp!
Error: cannot find the corresponding timestamp!
Error: cannot find the corresponding timestamp!
Error: cannot find the corresponding timestamp!
Error: cannot find the corresponding timestamp!
Error: cannot find the corresponding timestamp!
Error: cannot find the corresponding timestamp!
Error: cannot find the corresponding timestamp!
Error: cannot find the corresponding timestamp!
Error: cannot find the corresponding timestamp!
Error: cannot find the corresponding timestamp!
Error: cannot find the corresponding timestamp!
Error: cannot find the corresponding timestamp!
Error: cannot find the corresponding timestamp!
Error: cannot find the corresponding timestamp!
Error: cannot find the corresponding timestamp!
Error: cannot find the corresponding timestamp!
Error: cannot find the corresponding timestamp!
Error: cannot find the corresponding timestamp!
Error: cannot find the corresponding timestamp!
Error: cannot find the corresponding timestamp!
Error: cannot find the corresponding timestamp!
Error: cannot find the corresponding timestamp!
Error: cannot find the corresponding timestamp!
Error: cannot find the corresponding timestamp!
Error: cannot find the corresponding timestamp!
Error: cannot find the corresponding timestamp!
Error: cannot find the corresponding timestamp!
Error: cannot find the corresponding timestamp!
Error: cannot find the corresponding timestamp!
Error: cannot find the corresponding timestamp!
Error: cannot find the corresponding timestamp!
Error: cannot find the corresponding timestamp!
Error: cannot find the corresponding timestamp!
Error: cannot find the corresponding timestamp!
Error: cannot find the corresponding timestamp!
Error: cannot find the corresponding timestamp!
Error: cannot find the corresponding timestamp!
Error: cannot find the corresponding timestamp!
Error: cannot find the corresponding timestamp!
Error: cannot find the corresponding timestamp!
Error: cannot find the corresponding timestamp!
Error: cannot find the corresponding timestamp!
Error: cannot find the corresponding timestamp!
Error: cannot find the corresponding timestamp!
Error: cannot find the corresponding timestamp!
Error: cannot find the corresponding timestamp!
Error: cannot find the corresponding timestamp!
Error: cannot find the corresponding timestamp!
Error: cannot find the corresponding timestamp!
Error: cannot find the corresponding timestamp!
Error: cannot find the corresponding timestamp!
Error: cannot find the corresponding timestamp!
Error: cannot find the corresponding timestamp!
Error: cannot find the corresponding timestamp!
Error: cannot find the corresponding timestamp!
Error: cannot find the corresponding timestamp!
Error: cannot find the corresponding timestamp!
Error: cannot find the corresponding timestamp!
Error: cannot find the corresponding timestamp!
Error: cannot find the corresponding timestamp!
Error: cannot find the corresponding timestamp!
Error: cannot find the corresponding timestamp!
Error: cannot find the corresponding timestamp!
Error: cannot find the corresponding timestamp!
Error: cannot find the corresponding timestamp!
Error: cannot find the corresponding timestamp!
Error: cannot find the corresponding timestamp!
Error: cannot find the corresponding timestamp!
Error: cannot find the corresponding timestamp!
Error: cannot find the corresponding timestamp!
Error: cannot find the corresponding timestamp!
Error: cannot find the corresponding timestamp!
Error: cannot find the corresponding timestamp!
Error: cannot find the corresponding timestamp!
Error: cannot find the corresponding timestamp!
Error: cannot find the corresponding timestamp!
Error: cannot find the corresponding timestamp!
Error: cannot find the corresponding timestamp!
Error: cannot find the corresponding timestamp!
Error: cannot find the corresponding timestamp!
Error: cannot find the corresponding timestamp!
Error: cannot find the corresponding timestamp!
Error: cannot find the corresponding timestamp!
Error: cannot find the corresponding timestamp!
Error: cannot find the corresponding timestamp!
Error: cannot find the corresponding timestamp!
Error: cannot find the corresponding timestamp!
Error: cannot find the corresponding timestamp!
Error: cannot find the corresponding timestamp!
Error: cannot find the corresponding timestamp!
Error: cannot find the corresponding timestamp!
Error: cannot find the corresponding timestamp!
Error: cannot find the corresponding timestamp!
Error: cannot find the corresponding timestamp!
Error: cannot find the corresponding timestamp!
Error: cannot find the corresponding timestamp!
Error: cannot find the corresponding timestamp!
Error: cannot find the corresponding timestamp!
Error: cannot find the corresponding timestamp!
Error: cannot find the corresponding timestamp!
Error: cannot find the corresponding timestamp!
Error: cannot find the corresponding timestamp!
Error: cannot find the corresponding timestamp!
Error: cannot find the corresponding timestamp!
Error: cannot find the corresponding timestamp!
Error: cannot find the corresponding timestamp!
Error: cannot find the corresponding timestamp!
Error: cannot find the corresponding timestamp!
Error: cannot find the corresponding timestamp!
Error: cannot find the corresponding timestamp!
Error: cannot find the corresponding timestamp!
Error: cannot find the corresponding timestamp!
Error: cannot find the corresponding timestamp!
Error: cannot find the corresponding timestamp!
Error: cannot find the corresponding timestamp!
Error: cannot find the corresponding timestamp!
Error: cannot find the corresponding timestamp!
Error: cannot find the corresponding timestamp!
Error: cannot find the corresponding timestamp!
Error: cannot find the corresponding timestamp!
Error: cannot find the corresponding timestamp!
Error: cannot find the corresponding timestamp!
Error: cannot find the corresponding timestamp!
Error: cannot find the corresponding timestamp!
Error: cannot find the corresponding timestamp!
Error: cannot find the corresponding timestamp!
Error: cannot find the corresponding timestamp!
Error: cannot find the corresponding timestamp!
Error: cannot find the corresponding timestamp!
Error: cannot find the corresponding timestamp!
Error: cannot find the corresponding timestamp!
Error: cannot find the corresponding timestamp!
Error: cannot find the corresponding timestamp!
Error: cannot find the corresponding timestamp!
Error: cannot find the corresponding timestamp!
Error: cannot find the corresponding timestamp!
Error: cannot find the corresponding timestamp!
Error: cannot find the corresponding timestamp!
Error: cannot find the corresponding timestamp!
Error: cannot find the corresponding timestamp!
Error: cannot find the corresponding timestamp!
Error: cannot find the corresponding timestamp!
Error: cannot find the corresponding timestamp!
Error: cannot find the corresponding timestamp!
Error: cannot find the corresponding timestamp!
Error: cannot find the corresponding timestamp!
Error: cannot find the corresponding timestamp!
Error: cannot find the corresponding timestamp!
Error: cannot find the corresponding timestamp!
Error: cannot find the corresponding timestamp!
Error: cannot find the corresponding timestamp!
Error: cannot find the corresponding timestamp!
Error: cannot find the corresponding timestamp!
Error: cannot find the corresponding timestamp!
Error: cannot find the corresponding timestamp!
Error: cannot find the corresponding timestamp!
Error: cannot find the corresponding timestamp!
Error: cannot find the corresponding timestamp!
Error: cannot find the corresponding timestamp!
Error: cannot find the corresponding timestamp!
Error: cannot find the corresponding timestamp!
Error: cannot find the corresponding timestamp!
Error: cannot find the corresponding timestamp!
Error: cannot find the corresponding timestamp!
Error: cannot find the corresponding timestamp!
Error: cannot find the corresponding timestamp!
Error: cannot find the corresponding timestamp!
Error: cannot find the corresponding timestamp!
Error: cannot find the corresponding timestamp!
Error: cannot find the corresponding timestamp!
Error: cannot find the corresponding timestamp!
Error: cannot find the corresponding timestamp!
Error: cannot find the corresponding timestamp!
Error: cannot find the corresponding timestamp!
Error: cannot find the corresponding timestamp!
Error: cannot find the corresponding timestamp!
Error: cannot find the corresponding timestamp!
Error: cannot find the corresponding timestamp!
Error: cannot find the corresponding timestamp!
Error: cannot find the corresponding timestamp!
Error: cannot find the corresponding timestamp!
Error: cannot find the corresponding timestamp!
Error: cannot find the corresponding timestamp!
Error: cannot find the corresponding timestamp!
Error: cannot find the corresponding timestamp!
Error: cannot find the corresponding timestamp!
Error: cannot find the corresponding timestamp!
Error: cannot find the corresponding timestamp!
Error: cannot find the corresponding timestamp!
Error: cannot find the corresponding timestamp!
Error: cannot find the corresponding timestamp!
Error: cannot find the corresponding timestamp!
Error: cannot find the corresponding timestamp!
Error: cannot find the corresponding timestamp!
Error: cannot find the corresponding timestamp!
Error: cannot find the corresponding timestamp!
Error: cannot find the corresponding timestamp!
Error: cannot find the corresponding timestamp!
Error: cannot find the corresponding timestamp!
Error: cannot find the corresponding timestamp!
Error: cannot find the corresponding timestamp!
Error: cannot find the corresponding timestamp!
Error: cannot find the corresponding timestamp!
Error: cannot find the corresponding timestamp!
Error: cannot find the corresponding timestamp!
Error: cannot find the corresponding timestamp!
Error: cannot find the corresponding timestamp!
Error: cannot find the corresponding timestamp!
Error: cannot find the corresponding timestamp!
Error: cannot find the corresponding timestamp!
Error: cannot find the corresponding timestamp!
Error: cannot find the corresponding timestamp!
Error: cannot find the corresponding timestamp!
Error: cannot find the corresponding timestamp!
Error: cannot find the corresponding timestamp!
Error: cannot find the corresponding timestamp!
Error: cannot find the corresponding timestamp!
Error: cannot find the corresponding timestamp!
Error: cannot find the corresponding timestamp!
Error: cannot find the corresponding timestamp!
Error: cannot find the corresponding timestamp!
Error: cannot find the corresponding timestamp!
Error: cannot find the corresponding timestamp!
Error: cannot find the corresponding timestamp!
Error: cannot find the corresponding timestamp!
Error: cannot find the corresponding timestamp!
Error: cannot find the corresponding timestamp!
Heartbeat CPU 0 instructions: 30000001 cycles: 6302835 heartbeat IPC: 4.70098 cumulative IPC: 4.75976 (Simulation time: 0 hr 18 min 32 sec) 
Error: cannot find the corresponding timestamp!
Error: cannot find the corresponding timestamp!
Error: cannot find the corresponding timestamp!
Error: cannot find the corresponding timestamp!
Error: cannot find the corresponding timestamp!
Error: cannot find the corresponding timestamp!
Error: cannot find the corresponding timestamp!
Error: cannot find the corresponding timestamp!
Error: cannot find the corresponding timestamp!
Error: cannot find the corresponding timestamp!
Error: cannot find the corresponding timestamp!
Error: cannot find the corresponding timestamp!
Error: cannot find the corresponding timestamp!
Error: cannot find the corresponding timestamp!
Error: cannot find the corresponding timestamp!
Error: cannot find the corresponding timestamp!
Error: cannot find the corresponding timestamp!
Error: cannot find the corresponding timestamp!
Error: cannot find the corresponding timestamp!
Error: cannot find the corresponding timestamp!
Error: cannot find the corresponding timestamp!
Error: cannot find the corresponding timestamp!
Error: cannot find the corresponding timestamp!
Error: cannot find the corresponding timestamp!
Error: cannot find the corresponding timestamp!
Error: cannot find the corresponding timestamp!
Error: cannot find the corresponding timestamp!
Error: cannot find the corresponding timestamp!
Error: cannot find the corresponding timestamp!
Error: cannot find the corresponding timestamp!
Error: cannot find the corresponding timestamp!
Error: cannot find the corresponding timestamp!
Error: cannot find the corresponding timestamp!
Error: cannot find the corresponding timestamp!
Error: cannot find the corresponding timestamp!
Error: cannot find the corresponding timestamp!
Error: cannot find the corresponding timestamp!
Error: cannot find the corresponding timestamp!
Error: cannot find the corresponding timestamp!
Error: cannot find the corresponding timestamp!
Error: cannot find the corresponding timestamp!
Error: cannot find the corresponding timestamp!
Error: cannot find the corresponding timestamp!
Error: cannot find the corresponding timestamp!
Error: cannot find the corresponding timestamp!
Error: cannot find the corresponding timestamp!
Error: cannot find the corresponding timestamp!
Error: cannot find the corresponding timestamp!
Error: cannot find the corresponding timestamp!
Error: cannot find the corresponding timestamp!
Error: cannot find the corresponding timestamp!
Error: cannot find the corresponding timestamp!
Error: cannot find the corresponding timestamp!
Error: cannot find the corresponding timestamp!
Error: cannot find the corresponding timestamp!
Error: cannot find the corresponding timestamp!
Error: cannot find the corresponding timestamp!
Error: cannot find the corresponding timestamp!
Error: cannot find the corresponding timestamp!
Error: cannot find the corresponding timestamp!
Error: cannot find the corresponding timestamp!
Error: cannot find the corresponding timestamp!
Error: cannot find the corresponding timestamp!
Error: cannot find the corresponding timestamp!
Error: cannot find the corresponding timestamp!
Error: cannot find the corresponding timestamp!
Error: cannot find the corresponding timestamp!
Error: cannot find the corresponding timestamp!
Error: cannot find the corresponding timestamp!
Error: cannot find the corresponding timestamp!
Error: cannot find the corresponding timestamp!
Error: cannot find the corresponding timestamp!
Error: cannot find the corresponding timestamp!
Error: cannot find the corresponding timestamp!
Error: cannot find the corresponding timestamp!
Error: cannot find the corresponding timestamp!
Error: cannot find the corresponding timestamp!
Error: cannot find the corresponding timestamp!
Error: cannot find the corresponding timestamp!
Error: cannot find the corresponding timestamp!
Error: cannot find the corresponding timestamp!
Error: cannot find the corresponding timestamp!
Error: cannot find the corresponding timestamp!
Error: cannot find the corresponding timestamp!
Error: cannot find the corresponding timestamp!
Error: cannot find the corresponding timestamp!
Error: cannot find the corresponding timestamp!
Error: cannot find the corresponding timestamp!
Error: cannot find the corresponding timestamp!
Error: cannot find the corresponding timestamp!
Error: cannot find the corresponding timestamp!
Error: cannot find the corresponding timestamp!
Error: cannot find the corresponding timestamp!
Error: cannot find the corresponding timestamp!
Error: cannot find the corresponding timestamp!
Error: cannot find the corresponding timestamp!
Error: cannot find the corresponding timestamp!
Error: cannot find the corresponding timestamp!
Error: cannot find the corresponding timestamp!
Error: cannot find the corresponding timestamp!
Error: cannot find the corresponding timestamp!
Error: cannot find the corresponding timestamp!
Error: cannot find the corresponding timestamp!
Error: cannot find the corresponding timestamp!
Error: cannot find the corresponding timestamp!
Error: cannot find the corresponding timestamp!
Error: cannot find the corresponding timestamp!
Error: cannot find the corresponding timestamp!
Error: cannot find the corresponding timestamp!
Error: cannot find the corresponding timestamp!
Error: cannot find the corresponding timestamp!
Error: cannot find the corresponding timestamp!
Error: cannot find the corresponding timestamp!
Error: cannot find the corresponding timestamp!
Error: cannot find the corresponding timestamp!
Error: cannot find the corresponding timestamp!
Error: cannot find the corresponding timestamp!
Error: cannot find the corresponding timestamp!
Error: cannot find the corresponding timestamp!
Error: cannot find the corresponding timestamp!
Error: cannot find the corresponding timestamp!
Error: cannot find the corresponding timestamp!
Error: cannot find the corresponding timestamp!
Error: cannot find the corresponding timestamp!
Error: cannot find the corresponding timestamp!
Error: cannot find the corresponding timestamp!
Error: cannot find the corresponding timestamp!
Error: cannot find the corresponding timestamp!
Error: cannot find the corresponding timestamp!
Error: cannot find the corresponding timestamp!
Error: cannot find the corresponding timestamp!
Error: cannot find the corresponding timestamp!
Error: cannot find the corresponding timestamp!
Error: cannot find the corresponding timestamp!
Error: cannot find the corresponding timestamp!
Error: cannot find the corresponding timestamp!
Error: cannot find the corresponding timestamp!
Error: cannot find the corresponding timestamp!
Error: cannot find the corresponding timestamp!
Error: cannot find the corresponding timestamp!
Error: cannot find the corresponding timestamp!
Error: cannot find the corresponding timestamp!
Error: cannot find the corresponding timestamp!
Error: cannot find the corresponding timestamp!
Error: cannot find the corresponding timestamp!
Error: cannot find the corresponding timestamp!
Error: cannot find the corresponding timestamp!
Error: cannot find the corresponding timestamp!
Error: cannot find the corresponding timestamp!
Error: cannot find the corresponding timestamp!
Error: cannot find the corresponding timestamp!
Error: cannot find the corresponding timestamp!
Error: cannot find the corresponding timestamp!
Error: cannot find the corresponding timestamp!
Error: cannot find the corresponding timestamp!
Error: cannot find the corresponding timestamp!
Error: cannot find the corresponding timestamp!
Error: cannot find the corresponding timestamp!
Error: cannot find the corresponding timestamp!
Error: cannot find the corresponding timestamp!
Error: cannot find the corresponding timestamp!
Error: cannot find the corresponding timestamp!
Error: cannot find the corresponding timestamp!
Error: cannot find the corresponding timestamp!
Error: cannot find the corresponding timestamp!
Error: cannot find the corresponding timestamp!
Error: cannot find the corresponding timestamp!
Error: cannot find the corresponding timestamp!
Error: cannot find the corresponding timestamp!
Error: cannot find the corresponding timestamp!
Error: cannot find the corresponding timestamp!
Error: cannot find the corresponding timestamp!
Error: cannot find the corresponding timestamp!
Error: cannot find the corresponding timestamp!
Error: cannot find the corresponding timestamp!
Error: cannot find the corresponding timestamp!
Error: cannot find the corresponding timestamp!
Error: cannot find the corresponding timestamp!
Error: cannot find the corresponding timestamp!
Error: cannot find the corresponding timestamp!
Error: cannot find the corresponding timestamp!
Error: cannot find the corresponding timestamp!
Error: cannot find the corresponding timestamp!
Error: cannot find the corresponding timestamp!
Error: cannot find the corresponding timestamp!
Error: cannot find the corresponding timestamp!
Error: cannot find the corresponding timestamp!
Error: cannot find the corresponding timestamp!
Error: cannot find the corresponding timestamp!
Error: cannot find the corresponding timestamp!
Error: cannot find the corresponding timestamp!
Error: cannot find the corresponding timestamp!
Error: cannot find the corresponding timestamp!
Error: cannot find the corresponding timestamp!
Error: cannot find the corresponding timestamp!
Error: cannot find the corresponding timestamp!
Error: cannot find the corresponding timestamp!
Error: cannot find the corresponding timestamp!
Error: cannot find the corresponding timestamp!
Error: cannot find the corresponding timestamp!
Error: cannot find the corresponding timestamp!
Error: cannot find the corresponding timestamp!
Error: cannot find the corresponding timestamp!
Error: cannot find the corresponding timestamp!
Error: cannot find the corresponding timestamp!
Error: cannot find the corresponding timestamp!
Error: cannot find the corresponding timestamp!
Error: cannot find the corresponding timestamp!
Error: cannot find the corresponding timestamp!
Error: cannot find the corresponding timestamp!
Error: cannot find the corresponding timestamp!
Error: cannot find the corresponding timestamp!
Error: cannot find the corresponding timestamp!
Error: cannot find the corresponding timestamp!
Error: cannot find the corresponding timestamp!
Error: cannot find the corresponding timestamp!
Error: cannot find the corresponding timestamp!
Error: cannot find the corresponding timestamp!
Error: cannot find the corresponding timestamp!
Error: cannot find the corresponding timestamp!
Error: cannot find the corresponding timestamp!
Error: cannot find the corresponding timestamp!
Error: cannot find the corresponding timestamp!
Error: cannot find the corresponding timestamp!
Error: cannot find the corresponding timestamp!
Error: cannot find the corresponding timestamp!
Error: cannot find the corresponding timestamp!
Error: cannot find the corresponding timestamp!
Error: cannot find the corresponding timestamp!
Error: cannot find the corresponding timestamp!
Error: cannot find the corresponding timestamp!
Error: cannot find the corresponding timestamp!
Error: cannot find the corresponding timestamp!
Error: cannot find the corresponding timestamp!
Error: cannot find the corresponding timestamp!
Error: cannot find the corresponding timestamp!
Error: cannot find the corresponding timestamp!
Error: cannot find the corresponding timestamp!
Error: cannot find the corresponding timestamp!
Error: cannot find the corresponding timestamp!
Error: cannot find the corresponding timestamp!
Error: cannot find the corresponding timestamp!
Error: cannot find the corresponding timestamp!
Error: cannot find the corresponding timestamp!
Error: cannot find the corresponding timestamp!
Error: cannot find the corresponding timestamp!
Error: cannot find the corresponding timestamp!
Error: cannot find the corresponding timestamp!
Error: cannot find the corresponding timestamp!
Error: cannot find the corresponding timestamp!
Error: cannot find the corresponding timestamp!
Error: cannot find the corresponding timestamp!
Error: cannot find the corresponding timestamp!
Error: cannot find the corresponding timestamp!
Error: cannot find the corresponding timestamp!
Error: cannot find the corresponding timestamp!
Error: cannot find the corresponding timestamp!
Error: cannot find the corresponding timestamp!
Error: cannot find the corresponding timestamp!
Error: cannot find the corresponding timestamp!
Error: cannot find the corresponding timestamp!
Error: cannot find the corresponding timestamp!
Error: cannot find the corresponding timestamp!
Error: cannot find the corresponding timestamp!
Error: cannot find the corresponding timestamp!
Error: cannot find the corresponding timestamp!
Error: cannot find the corresponding timestamp!
Error: cannot find the corresponding timestamp!
Error: cannot find the corresponding timestamp!
Error: cannot find the corresponding timestamp!
Error: cannot find the corresponding timestamp!
Error: cannot find the corresponding timestamp!
Error: cannot find the corresponding timestamp!
Error: cannot find the corresponding timestamp!
Error: cannot find the corresponding timestamp!
Error: cannot find the corresponding timestamp!
Error: cannot find the corresponding timestamp!
Error: cannot find the corresponding timestamp!
Error: cannot find the corresponding timestamp!
Error: cannot find the corresponding timestamp!
Error: cannot find the corresponding timestamp!
Error: cannot find the corresponding timestamp!
Error: cannot find the corresponding timestamp!
Error: cannot find the corresponding timestamp!
Error: cannot find the corresponding timestamp!
Error: cannot find the corresponding timestamp!
Error: cannot find the corresponding timestamp!
Error: cannot find the corresponding timestamp!
Error: cannot find the corresponding timestamp!
Error: cannot find the corresponding timestamp!
Error: cannot find the corresponding timestamp!
Error: cannot find the corresponding timestamp!
Error: cannot find the corresponding timestamp!
Error: cannot find the corresponding timestamp!
Error: cannot find the corresponding timestamp!
Error: cannot find the corresponding timestamp!
Error: cannot find the corresponding timestamp!
Error: cannot find the corresponding timestamp!
Error: cannot find the corresponding timestamp!
Error: cannot find the corresponding timestamp!
Error: cannot find the corresponding timestamp!
Error: cannot find the corresponding timestamp!
Error: cannot find the corresponding timestamp!
Error: cannot find the corresponding timestamp!
Error: cannot find the corresponding timestamp!
Error: cannot find the corresponding timestamp!
Error: cannot find the corresponding timestamp!
Error: cannot find the corresponding timestamp!
Error: cannot find the corresponding timestamp!
Error: cannot find the corresponding timestamp!
Error: cannot find the corresponding timestamp!
Error: cannot find the corresponding timestamp!
Error: cannot find the corresponding timestamp!
Error: cannot find the corresponding timestamp!
Error: cannot find the corresponding timestamp!
Error: cannot find the corresponding timestamp!
Error: cannot find the corresponding timestamp!
Error: cannot find the corresponding timestamp!
Error: cannot find the corresponding timestamp!
Error: cannot find the corresponding timestamp!
Error: cannot find the corresponding timestamp!
Error: cannot find the corresponding timestamp!
Error: cannot find the corresponding timestamp!
Error: cannot find the corresponding timestamp!
Error: cannot find the corresponding timestamp!
Error: cannot find the corresponding timestamp!
Error: cannot find the corresponding timestamp!
Error: cannot find the corresponding timestamp!
Error: cannot find the corresponding timestamp!
Error: cannot find the corresponding timestamp!
Error: cannot find the corresponding timestamp!
Error: cannot find the corresponding timestamp!
Error: cannot find the corresponding timestamp!
Error: cannot find the corresponding timestamp!
Error: cannot find the corresponding timestamp!
Error: cannot find the corresponding timestamp!
Error: cannot find the corresponding timestamp!
Error: cannot find the corresponding timestamp!
Error: cannot find the corresponding timestamp!
Error: cannot find the corresponding timestamp!
Error: cannot find the corresponding timestamp!
Error: cannot find the corresponding timestamp!
Error: cannot find the corresponding timestamp!
Error: cannot find the corresponding timestamp!
Error: cannot find the corresponding timestamp!
Error: cannot find the corresponding timestamp!
Error: cannot find the corresponding timestamp!
Error: cannot find the corresponding timestamp!
Error: cannot find the corresponding timestamp!
Error: cannot find the corresponding timestamp!
Error: cannot find the corresponding timestamp!
Error: cannot find the corresponding timestamp!
Error: cannot find the corresponding timestamp!
Error: cannot find the corresponding timestamp!
Error: cannot find the corresponding timestamp!
Error: cannot find the corresponding timestamp!
Error: cannot find the corresponding timestamp!
Error: cannot find the corresponding timestamp!
Error: cannot find the corresponding timestamp!
Error: cannot find the corresponding timestamp!
Error: cannot find the corresponding timestamp!
Error: cannot find the corresponding timestamp!
Error: cannot find the corresponding timestamp!
Error: cannot find the corresponding timestamp!
Error: cannot find the corresponding timestamp!
Error: cannot find the corresponding timestamp!
Error: cannot find the corresponding timestamp!
Error: cannot find the corresponding timestamp!
Error: cannot find the corresponding timestamp!
Error: cannot find the corresponding timestamp!
Error: cannot find the corresponding timestamp!
Error: cannot find the corresponding timestamp!
Error: cannot find the corresponding timestamp!
Error: cannot find the corresponding timestamp!
Error: cannot find the corresponding timestamp!
Error: cannot find the corresponding timestamp!
Error: cannot find the corresponding timestamp!
Error: cannot find the corresponding timestamp!
Error: cannot find the corresponding timestamp!
Error: cannot find the corresponding timestamp!
Error: cannot find the corresponding timestamp!
Error: cannot find the corresponding timestamp!
Error: cannot find the corresponding timestamp!
Error: cannot find the corresponding timestamp!
Error: cannot find the corresponding timestamp!
Error: cannot find the corresponding timestamp!
Error: cannot find the corresponding timestamp!
Error: cannot find the corresponding timestamp!
Error: cannot find the corresponding timestamp!
Error: cannot find the corresponding timestamp!
Heartbeat CPU 0 instructions: 40000002 cycles: 8389186 heartbeat IPC: 4.79306 cumulative IPC: 4.76804 (Simulation time: 0 hr 24 min 39 sec) 
Error: cannot find the corresponding timestamp!
Error: cannot find the corresponding timestamp!
Error: cannot find the corresponding timestamp!
Error: cannot find the corresponding timestamp!
Error: cannot find the corresponding timestamp!
Error: cannot find the corresponding timestamp!
Error: cannot find the corresponding timestamp!
Error: cannot find the corresponding timestamp!
Error: cannot find the corresponding timestamp!
Error: cannot find the corresponding timestamp!
Error: cannot find the corresponding timestamp!
Error: cannot find the corresponding timestamp!
Error: cannot find the corresponding timestamp!
Error: cannot find the corresponding timestamp!
Error: cannot find the corresponding timestamp!
Error: cannot find the corresponding timestamp!
Error: cannot find the corresponding timestamp!
Error: cannot find the corresponding timestamp!
Error: cannot find the corresponding timestamp!
Error: cannot find the corresponding timestamp!
Error: cannot find the corresponding timestamp!
Error: cannot find the corresponding timestamp!
Error: cannot find the corresponding timestamp!
Error: cannot find the corresponding timestamp!
Error: cannot find the corresponding timestamp!
Error: cannot find the corresponding timestamp!
Error: cannot find the corresponding timestamp!
Error: cannot find the corresponding timestamp!
Error: cannot find the corresponding timestamp!
Error: cannot find the corresponding timestamp!
Error: cannot find the corresponding timestamp!
Error: cannot find the corresponding timestamp!
Error: cannot find the corresponding timestamp!
Error: cannot find the corresponding timestamp!
Error: cannot find the corresponding timestamp!
Error: cannot find the corresponding timestamp!
Error: cannot find the corresponding timestamp!
Error: cannot find the corresponding timestamp!
Error: cannot find the corresponding timestamp!
Error: cannot find the corresponding timestamp!
Error: cannot find the corresponding timestamp!
Error: cannot find the corresponding timestamp!
Error: cannot find the corresponding timestamp!
Error: cannot find the corresponding timestamp!
Error: cannot find the corresponding timestamp!
Error: cannot find the corresponding timestamp!
Error: cannot find the corresponding timestamp!
Error: cannot find the corresponding timestamp!
Error: cannot find the corresponding timestamp!
Error: cannot find the corresponding timestamp!
Error: cannot find the corresponding timestamp!
Error: cannot find the corresponding timestamp!
Error: cannot find the corresponding timestamp!
Error: cannot find the corresponding timestamp!
Error: cannot find the corresponding timestamp!
Error: cannot find the corresponding timestamp!
Error: cannot find the corresponding timestamp!
Error: cannot find the corresponding timestamp!
Error: cannot find the corresponding timestamp!
Error: cannot find the corresponding timestamp!
Error: cannot find the corresponding timestamp!
Error: cannot find the corresponding timestamp!
Error: cannot find the corresponding timestamp!
Error: cannot find the corresponding timestamp!
Error: cannot find the corresponding timestamp!
Error: cannot find the corresponding timestamp!
Error: cannot find the corresponding timestamp!
Error: cannot find the corresponding timestamp!
Error: cannot find the corresponding timestamp!
Error: cannot find the corresponding timestamp!
Error: cannot find the corresponding timestamp!
Error: cannot find the corresponding timestamp!
Error: cannot find the corresponding timestamp!
Error: cannot find the corresponding timestamp!
Error: cannot find the corresponding timestamp!
Error: cannot find the corresponding timestamp!
Error: cannot find the corresponding timestamp!
Error: cannot find the corresponding timestamp!
Error: cannot find the corresponding timestamp!
Error: cannot find the corresponding timestamp!
Error: cannot find the corresponding timestamp!
Error: cannot find the corresponding timestamp!
Error: cannot find the corresponding timestamp!
Error: cannot find the corresponding timestamp!
Error: cannot find the corresponding timestamp!
Error: cannot find the corresponding timestamp!
Error: cannot find the corresponding timestamp!
Error: cannot find the corresponding timestamp!
Error: cannot find the corresponding timestamp!
Error: cannot find the corresponding timestamp!
Error: cannot find the corresponding timestamp!
Error: cannot find the corresponding timestamp!
Error: cannot find the corresponding timestamp!
Error: cannot find the corresponding timestamp!
Error: cannot find the corresponding timestamp!
Error: cannot find the corresponding timestamp!
Error: cannot find the corresponding timestamp!
Error: cannot find the corresponding timestamp!
Error: cannot find the corresponding timestamp!
Error: cannot find the corresponding timestamp!
Error: cannot find the corresponding timestamp!
Error: cannot find the corresponding timestamp!
Error: cannot find the corresponding timestamp!
Error: cannot find the corresponding timestamp!
Error: cannot find the corresponding timestamp!
Error: cannot find the corresponding timestamp!
Error: cannot find the corresponding timestamp!
Error: cannot find the corresponding timestamp!
Error: cannot find the corresponding timestamp!
Error: cannot find the corresponding timestamp!
Error: cannot find the corresponding timestamp!
Error: cannot find the corresponding timestamp!
Error: cannot find the corresponding timestamp!
Error: cannot find the corresponding timestamp!
Error: cannot find the corresponding timestamp!
Error: cannot find the corresponding timestamp!
Error: cannot find the corresponding timestamp!
Error: cannot find the corresponding timestamp!
Error: cannot find the corresponding timestamp!
Error: cannot find the corresponding timestamp!
Error: cannot find the corresponding timestamp!
Error: cannot find the corresponding timestamp!
Error: cannot find the corresponding timestamp!
Error: cannot find the corresponding timestamp!
Error: cannot find the corresponding timestamp!
Error: cannot find the corresponding timestamp!
Error: cannot find the corresponding timestamp!
Error: cannot find the corresponding timestamp!
Error: cannot find the corresponding timestamp!
Error: cannot find the corresponding timestamp!
Error: cannot find the corresponding timestamp!
Error: cannot find the corresponding timestamp!
Error: cannot find the corresponding timestamp!
Error: cannot find the corresponding timestamp!
Error: cannot find the corresponding timestamp!
Error: cannot find the corresponding timestamp!
Error: cannot find the corresponding timestamp!
Error: cannot find the corresponding timestamp!
Error: cannot find the corresponding timestamp!
Error: cannot find the corresponding timestamp!
Error: cannot find the corresponding timestamp!
Error: cannot find the corresponding timestamp!
Error: cannot find the corresponding timestamp!
Error: cannot find the corresponding timestamp!
Error: cannot find the corresponding timestamp!
Error: cannot find the corresponding timestamp!
Error: cannot find the corresponding timestamp!
Error: cannot find the corresponding timestamp!
Error: cannot find the corresponding timestamp!
Error: cannot find the corresponding timestamp!
Error: cannot find the corresponding timestamp!
Error: cannot find the corresponding timestamp!
Error: cannot find the corresponding timestamp!
Error: cannot find the corresponding timestamp!
Error: cannot find the corresponding timestamp!
Error: cannot find the corresponding timestamp!
Error: cannot find the corresponding timestamp!
Error: cannot find the corresponding timestamp!
Error: cannot find the corresponding timestamp!
Error: cannot find the corresponding timestamp!
Error: cannot find the corresponding timestamp!
Error: cannot find the corresponding timestamp!
Error: cannot find the corresponding timestamp!
Error: cannot find the corresponding timestamp!
Error: cannot find the corresponding timestamp!
Error: cannot find the corresponding timestamp!
Error: cannot find the corresponding timestamp!
Error: cannot find the corresponding timestamp!
Error: cannot find the corresponding timestamp!
Error: cannot find the corresponding timestamp!
Error: cannot find the corresponding timestamp!
Error: cannot find the corresponding timestamp!
Error: cannot find the corresponding timestamp!
Error: cannot find the corresponding timestamp!
Error: cannot find the corresponding timestamp!
Error: cannot find the corresponding timestamp!
Error: cannot find the corresponding timestamp!
Error: cannot find the corresponding timestamp!
Error: cannot find the corresponding timestamp!
Error: cannot find the corresponding timestamp!
Error: cannot find the corresponding timestamp!
Error: cannot find the corresponding timestamp!
Error: cannot find the corresponding timestamp!
Error: cannot find the corresponding timestamp!
Error: cannot find the corresponding timestamp!
Error: cannot find the corresponding timestamp!
Error: cannot find the corresponding timestamp!
Error: cannot find the corresponding timestamp!
Error: cannot find the corresponding timestamp!
Error: cannot find the corresponding timestamp!
Error: cannot find the corresponding timestamp!
Error: cannot find the corresponding timestamp!
Error: cannot find the corresponding timestamp!
Error: cannot find the corresponding timestamp!
Error: cannot find the corresponding timestamp!
Error: cannot find the corresponding timestamp!
Error: cannot find the corresponding timestamp!
Error: cannot find the corresponding timestamp!
Error: cannot find the corresponding timestamp!
Error: cannot find the corresponding timestamp!
Error: cannot find the corresponding timestamp!
Error: cannot find the corresponding timestamp!
Error: cannot find the corresponding timestamp!
Error: cannot find the corresponding timestamp!
Error: cannot find the corresponding timestamp!
Error: cannot find the corresponding timestamp!
Error: cannot find the corresponding timestamp!
Error: cannot find the corresponding timestamp!
Error: cannot find the corresponding timestamp!
Error: cannot find the corresponding timestamp!
Error: cannot find the corresponding timestamp!
Error: cannot find the corresponding timestamp!
Error: cannot find the corresponding timestamp!
Error: cannot find the corresponding timestamp!
Error: cannot find the corresponding timestamp!
Error: cannot find the corresponding timestamp!
Error: cannot find the corresponding timestamp!
Error: cannot find the corresponding timestamp!
Error: cannot find the corresponding timestamp!
Error: cannot find the corresponding timestamp!
Error: cannot find the corresponding timestamp!
Error: cannot find the corresponding timestamp!
Error: cannot find the corresponding timestamp!
Error: cannot find the corresponding timestamp!
Error: cannot find the corresponding timestamp!
Error: cannot find the corresponding timestamp!
Error: cannot find the corresponding timestamp!
Error: cannot find the corresponding timestamp!
Error: cannot find the corresponding timestamp!
Error: cannot find the corresponding timestamp!
Error: cannot find the corresponding timestamp!
Error: cannot find the corresponding timestamp!
Error: cannot find the corresponding timestamp!
Error: cannot find the corresponding timestamp!
Error: cannot find the corresponding timestamp!
Error: cannot find the corresponding timestamp!
Error: cannot find the corresponding timestamp!
Error: cannot find the corresponding timestamp!
Error: cannot find the corresponding timestamp!
Error: cannot find the corresponding timestamp!
Error: cannot find the corresponding timestamp!
Error: cannot find the corresponding timestamp!
Error: cannot find the corresponding timestamp!
Error: cannot find the corresponding timestamp!
Error: cannot find the corresponding timestamp!
Error: cannot find the corresponding timestamp!
Error: cannot find the corresponding timestamp!
Error: cannot find the corresponding timestamp!
Error: cannot find the corresponding timestamp!
Error: cannot find the corresponding timestamp!
Error: cannot find the corresponding timestamp!
Error: cannot find the corresponding timestamp!
Error: cannot find the corresponding timestamp!
Error: cannot find the corresponding timestamp!
Error: cannot find the corresponding timestamp!
Error: cannot find the corresponding timestamp!
Error: cannot find the corresponding timestamp!
Error: cannot find the corresponding timestamp!
Error: cannot find the corresponding timestamp!
Error: cannot find the corresponding timestamp!
Error: cannot find the corresponding timestamp!
Error: cannot find the corresponding timestamp!
Error: cannot find the corresponding timestamp!
Error: cannot find the corresponding timestamp!
Error: cannot find the corresponding timestamp!
Error: cannot find the corresponding timestamp!
Error: cannot find the corresponding timestamp!
Error: cannot find the corresponding timestamp!
Error: cannot find the corresponding timestamp!
Error: cannot find the corresponding timestamp!
Error: cannot find the corresponding timestamp!
Error: cannot find the corresponding timestamp!
Error: cannot find the corresponding timestamp!
Error: cannot find the corresponding timestamp!
Error: cannot find the corresponding timestamp!
Error: cannot find the corresponding timestamp!
Error: cannot find the corresponding timestamp!
Error: cannot find the corresponding timestamp!
Error: cannot find the corresponding timestamp!
Error: cannot find the corresponding timestamp!
Error: cannot find the corresponding timestamp!
Error: cannot find the corresponding timestamp!
Error: cannot find the corresponding timestamp!
Error: cannot find the corresponding timestamp!
Error: cannot find the corresponding timestamp!
Error: cannot find the corresponding timestamp!
Error: cannot find the corresponding timestamp!
Error: cannot find the corresponding timestamp!
Error: cannot find the corresponding timestamp!
Error: cannot find the corresponding timestamp!
Error: cannot find the corresponding timestamp!
Error: cannot find the corresponding timestamp!
Error: cannot find the corresponding timestamp!
Error: cannot find the corresponding timestamp!
Error: cannot find the corresponding timestamp!
Error: cannot find the corresponding timestamp!
Error: cannot find the corresponding timestamp!
Error: cannot find the corresponding timestamp!
Error: cannot find the corresponding timestamp!
Error: cannot find the corresponding timestamp!
Error: cannot find the corresponding timestamp!
Error: cannot find the corresponding timestamp!
Error: cannot find the corresponding timestamp!
Error: cannot find the corresponding timestamp!
Error: cannot find the corresponding timestamp!
Error: cannot find the corresponding timestamp!
Error: cannot find the corresponding timestamp!
Error: cannot find the corresponding timestamp!
Error: cannot find the corresponding timestamp!
Error: cannot find the corresponding timestamp!
Error: cannot find the corresponding timestamp!
Error: cannot find the corresponding timestamp!
Error: cannot find the corresponding timestamp!
Error: cannot find the corresponding timestamp!
Error: cannot find the corresponding timestamp!
Error: cannot find the corresponding timestamp!
Error: cannot find the corresponding timestamp!
Error: cannot find the corresponding timestamp!
Error: cannot find the corresponding timestamp!
Error: cannot find the corresponding timestamp!
Error: cannot find the corresponding timestamp!
Error: cannot find the corresponding timestamp!
Error: cannot find the corresponding timestamp!
Error: cannot find the corresponding timestamp!
Error: cannot find the corresponding timestamp!
Error: cannot find the corresponding timestamp!
Error: cannot find the corresponding timestamp!
Error: cannot find the corresponding timestamp!
Error: cannot find the corresponding timestamp!
Error: cannot find the corresponding timestamp!
Error: cannot find the corresponding timestamp!
Error: cannot find the corresponding timestamp!
Error: cannot find the corresponding timestamp!
Error: cannot find the corresponding timestamp!
Error: cannot find the corresponding timestamp!
Error: cannot find the corresponding timestamp!
Heartbeat CPU 0 instructions: 50000001 cycles: 10480853 heartbeat IPC: 4.78088 cumulative IPC: 4.7706 (Simulation time: 0 hr 30 min 40 sec) 

Warmup complete CPU 0 instructions: 50000001 cycles: 10480853 (Simulation time: 0 hr 30 min 40 sec) 

Error: cannot find the corresponding timestamp!
Error: cannot find the corresponding timestamp!
Error: cannot find the corresponding timestamp!
Error: cannot find the corresponding timestamp!
Error: cannot find the corresponding timestamp!
Error: cannot find the corresponding timestamp!
Error: cannot find the corresponding timestamp!
Error: cannot find the corresponding timestamp!
Error: cannot find the corresponding timestamp!
Error: cannot find the corresponding timestamp!
Error: cannot find the corresponding timestamp!
Error: cannot find the corresponding timestamp!
Error: cannot find the corresponding timestamp!
Error: cannot find the corresponding timestamp!
Error: cannot find the corresponding timestamp!
Error: cannot find the corresponding timestamp!
Error: cannot find the corresponding timestamp!
Error: cannot find the corresponding timestamp!
Error: cannot find the corresponding timestamp!
Error: cannot find the corresponding timestamp!
Error: cannot find the corresponding timestamp!
Error: cannot find the corresponding timestamp!
Error: cannot find the corresponding timestamp!
Error: cannot find the corresponding timestamp!
Error: cannot find the corresponding timestamp!
Error: cannot find the corresponding timestamp!
Error: cannot find the corresponding timestamp!
Error: cannot find the corresponding timestamp!
Error: cannot find the corresponding timestamp!
Error: cannot find the corresponding timestamp!
Error: cannot find the corresponding timestamp!
Error: cannot find the corresponding timestamp!
Error: cannot find the corresponding timestamp!
Error: cannot find the corresponding timestamp!
Error: cannot find the corresponding timestamp!
Error: cannot find the corresponding timestamp!
Error: cannot find the corresponding timestamp!
Error: cannot find the corresponding timestamp!
Error: cannot find the corresponding timestamp!
Error: cannot find the corresponding timestamp!
Error: cannot find the corresponding timestamp!
Error: cannot find the corresponding timestamp!
Error: cannot find the corresponding timestamp!
Error: cannot find the corresponding timestamp!
Error: cannot find the corresponding timestamp!
Error: cannot find the corresponding timestamp!
Error: cannot find the corresponding timestamp!
Error: cannot find the corresponding timestamp!
Error: cannot find the corresponding timestamp!
Error: cannot find the corresponding timestamp!
Error: cannot find the corresponding timestamp!
Error: cannot find the corresponding timestamp!
Error: cannot find the corresponding timestamp!
Error: cannot find the corresponding timestamp!
Error: cannot find the corresponding timestamp!
Error: cannot find the corresponding timestamp!
Error: cannot find the corresponding timestamp!
Error: cannot find the corresponding timestamp!
Error: cannot find the corresponding timestamp!
Error: cannot find the corresponding timestamp!
Error: cannot find the corresponding timestamp!
Error: cannot find the corresponding timestamp!
Error: cannot find the corresponding timestamp!
Error: cannot find the corresponding timestamp!
Error: cannot find the corresponding timestamp!
Error: cannot find the corresponding timestamp!
Error: cannot find the corresponding timestamp!
Error: cannot find the corresponding timestamp!
Error: cannot find the corresponding timestamp!
Error: cannot find the corresponding timestamp!
Error: cannot find the corresponding timestamp!
Error: cannot find the corresponding timestamp!
Error: cannot find the corresponding timestamp!
Error: cannot find the corresponding timestamp!
Error: cannot find the corresponding timestamp!
Error: cannot find the corresponding timestamp!
Error: cannot find the corresponding timestamp!
Error: cannot find the corresponding timestamp!
Error: cannot find the corresponding timestamp!
Error: cannot find the corresponding timestamp!
Error: cannot find the corresponding timestamp!
Error: cannot find the corresponding timestamp!
Error: cannot find the corresponding timestamp!
Error: cannot find the corresponding timestamp!
Error: cannot find the corresponding timestamp!
Error: cannot find the corresponding timestamp!
Error: cannot find the corresponding timestamp!
Error: cannot find the corresponding timestamp!
Error: cannot find the corresponding timestamp!
Error: cannot find the corresponding timestamp!
Error: cannot find the corresponding timestamp!
Error: cannot find the corresponding timestamp!
Error: cannot find the corresponding timestamp!
Error: cannot find the corresponding timestamp!
Error: cannot find the corresponding timestamp!
Error: cannot find the corresponding timestamp!
Error: cannot find the corresponding timestamp!
Error: cannot find the corresponding timestamp!
Error: cannot find the corresponding timestamp!
Error: cannot find the corresponding timestamp!
Error: cannot find the corresponding timestamp!
Error: cannot find the corresponding timestamp!
Error: cannot find the corresponding timestamp!
Error: cannot find the corresponding timestamp!
Error: cannot find the corresponding timestamp!
Error: cannot find the corresponding timestamp!
Error: cannot find the corresponding timestamp!
Error: cannot find the corresponding timestamp!
Error: cannot find the corresponding timestamp!
Error: cannot find the corresponding timestamp!
Error: cannot find the corresponding timestamp!
Error: cannot find the corresponding timestamp!
Error: cannot find the corresponding timestamp!
Error: cannot find the corresponding timestamp!
Error: cannot find the corresponding timestamp!
Error: cannot find the corresponding timestamp!
Error: cannot find the corresponding timestamp!
Error: cannot find the corresponding timestamp!
Error: cannot find the corresponding timestamp!
Error: cannot find the corresponding timestamp!
Error: cannot find the corresponding timestamp!
Error: cannot find the corresponding timestamp!
Error: cannot find the corresponding timestamp!
Error: cannot find the corresponding timestamp!
Error: cannot find the corresponding timestamp!
Error: cannot find the corresponding timestamp!
Error: cannot find the corresponding timestamp!
Error: cannot find the corresponding timestamp!
Error: cannot find the corresponding timestamp!
Error: cannot find the corresponding timestamp!
Error: cannot find the corresponding timestamp!
Error: cannot find the corresponding timestamp!
Error: cannot find the corresponding timestamp!
Error: cannot find the corresponding timestamp!
Error: cannot find the corresponding timestamp!
Error: cannot find the corresponding timestamp!
Error: cannot find the corresponding timestamp!
Error: cannot find the corresponding timestamp!
Error: cannot find the corresponding timestamp!
Error: cannot find the corresponding timestamp!
Error: cannot find the corresponding timestamp!
Error: cannot find the corresponding timestamp!
Error: cannot find the corresponding timestamp!
Error: cannot find the corresponding timestamp!
Error: cannot find the corresponding timestamp!
Error: cannot find the corresponding timestamp!
Error: cannot find the corresponding timestamp!
Error: cannot find the corresponding timestamp!
Error: cannot find the corresponding timestamp!
Error: cannot find the corresponding timestamp!
Error: cannot find the corresponding timestamp!
Error: cannot find the corresponding timestamp!
Error: cannot find the corresponding timestamp!
Error: cannot find the corresponding timestamp!
Error: cannot find the corresponding timestamp!
Error: cannot find the corresponding timestamp!
Error: cannot find the corresponding timestamp!
Error: cannot find the corresponding timestamp!
Error: cannot find the corresponding timestamp!
Error: cannot find the corresponding timestamp!
Error: cannot find the corresponding timestamp!
Error: cannot find the corresponding timestamp!
Error: cannot find the corresponding timestamp!
Error: cannot find the corresponding timestamp!
Error: cannot find the corresponding timestamp!
Error: cannot find the corresponding timestamp!
Error: cannot find the corresponding timestamp!
Error: cannot find the corresponding timestamp!
Error: cannot find the corresponding timestamp!
Error: cannot find the corresponding timestamp!
Error: cannot find the corresponding timestamp!
Error: cannot find the corresponding timestamp!
Error: cannot find the corresponding timestamp!
Error: cannot find the corresponding timestamp!
Error: cannot find the corresponding timestamp!
Error: cannot find the corresponding timestamp!
Error: cannot find the corresponding timestamp!
Error: cannot find the corresponding timestamp!
Error: cannot find the corresponding timestamp!
Error: cannot find the corresponding timestamp!
Error: cannot find the corresponding timestamp!
Error: cannot find the corresponding timestamp!
Error: cannot find the corresponding timestamp!
Error: cannot find the corresponding timestamp!
Error: cannot find the corresponding timestamp!
Error: cannot find the corresponding timestamp!
Error: cannot find the corresponding timestamp!
Error: cannot find the corresponding timestamp!
Error: cannot find the corresponding timestamp!
Error: cannot find the corresponding timestamp!
Error: cannot find the corresponding timestamp!
Error: cannot find the corresponding timestamp!
Error: cannot find the corresponding timestamp!
Error: cannot find the corresponding timestamp!
Error: cannot find the corresponding timestamp!
Error: cannot find the corresponding timestamp!
Error: cannot find the corresponding timestamp!
Error: cannot find the corresponding timestamp!
Error: cannot find the corresponding timestamp!
Error: cannot find the corresponding timestamp!
Error: cannot find the corresponding timestamp!
Error: cannot find the corresponding timestamp!
Error: cannot find the corresponding timestamp!
Error: cannot find the corresponding timestamp!
Error: cannot find the corresponding timestamp!
Error: cannot find the corresponding timestamp!
Error: cannot find the corresponding timestamp!
Error: cannot find the corresponding timestamp!
Error: cannot find the corresponding timestamp!
Error: cannot find the corresponding timestamp!
Error: cannot find the corresponding timestamp!
Error: cannot find the corresponding timestamp!
Error: cannot find the corresponding timestamp!
Error: cannot find the corresponding timestamp!
Error: cannot find the corresponding timestamp!
Error: cannot find the corresponding timestamp!
Error: cannot find the corresponding timestamp!
Error: cannot find the corresponding timestamp!
Error: cannot find the corresponding timestamp!
Error: cannot find the corresponding timestamp!
Error: cannot find the corresponding timestamp!
Error: cannot find the corresponding timestamp!
Error: cannot find the corresponding timestamp!
Error: cannot find the corresponding timestamp!
Error: cannot find the corresponding timestamp!
Error: cannot find the corresponding timestamp!
Error: cannot find the corresponding timestamp!
Error: cannot find the corresponding timestamp!
Error: cannot find the corresponding timestamp!
Error: cannot find the corresponding timestamp!
Error: cannot find the corresponding timestamp!
Error: cannot find the corresponding timestamp!
Error: cannot find the corresponding timestamp!
Error: cannot find the corresponding timestamp!
Error: cannot find the corresponding timestamp!
Error: cannot find the corresponding timestamp!
Error: cannot find the corresponding timestamp!
Error: cannot find the corresponding timestamp!
Error: cannot find the corresponding timestamp!
Error: cannot find the corresponding timestamp!
Error: cannot find the corresponding timestamp!
Error: cannot find the corresponding timestamp!
Error: cannot find the corresponding timestamp!
Error: cannot find the corresponding timestamp!
Error: cannot find the corresponding timestamp!
Error: cannot find the corresponding timestamp!
Error: cannot find the corresponding timestamp!
Error: cannot find the corresponding timestamp!
Error: cannot find the corresponding timestamp!
Error: cannot find the corresponding timestamp!
Error: cannot find the corresponding timestamp!
Error: cannot find the corresponding timestamp!
Error: cannot find the corresponding timestamp!
Error: cannot find the corresponding timestamp!
Error: cannot find the corresponding timestamp!
Error: cannot find the corresponding timestamp!
Error: cannot find the corresponding timestamp!
Error: cannot find the corresponding timestamp!
Error: cannot find the corresponding timestamp!
Error: cannot find the corresponding timestamp!
Error: cannot find the corresponding timestamp!
Error: cannot find the corresponding timestamp!
[...]
Error: cannot find the corresponding timestamp!
Error: cannot find the corresponding timestamp!
Error: cannot find the corresponding timestamp!
Error: cannot find the corresponding timestamp!
Error: cannot find the corresponding timestamp!
Error: cannot find the corresponding timestamp!
Error: cannot find the corresponding timestamp!
Error: cannot find the corresponding timestamp!
Error: cannot find the corresponding timestamp!
Error: cannot find the corresponding timestamp!
Error: cannot find the corresponding timestamp!
Error: cannot find the corresponding timestamp!
Error: cannot find the corresponding timestamp!
Error: cannot find the corresponding timestamp!
Error: cannot find the corresponding timestamp!
Error: cannot find the corresponding timestamp!
Error: cannot find the corresponding timestamp!
Error: cannot find the corresponding timestamp!
Error: cannot find the corresponding timestamp!
Error: cannot find the corresponding timestamp!
Error: cannot find the corresponding timestamp!
Error: cannot find the corresponding timestamp!
Error: cannot find the corresponding timestamp!
Error: cannot find the corresponding timestamp!
Error: cannot find the corresponding timestamp!
Error: cannot find the corresponding timestamp!
Error: cannot find the corresponding timestamp!
Error: cannot find the corresponding timestamp!
Error: cannot find the corresponding timestamp!
Error: cannot find the corresponding timestamp!
Error: cannot find the corresponding timestamp!
Error: cannot find the corresponding timestamp!
Error: cannot find the corresponding timestamp!
Error: cannot find the corresponding timestamp!
Error: cannot find the corresponding timestamp!
Error: cannot find the corresponding timestamp!
Error: cannot find the corresponding timestamp!
Error: cannot find the corresponding timestamp!
Error: cannot find the corresponding timestamp!
Error: cannot find the corresponding timestamp!
Error: cannot find the corresponding timestamp!
Error: cannot find the corresponding timestamp!
Error: cannot find the corresponding timestamp!
Error: cannot find the corresponding timestamp!
Error: cannot find the corresponding timestamp!
Error: cannot find the corresponding timestamp!
Error: cannot find the corresponding timestamp!
Error: cannot find the corresponding timestamp!
Error: cannot find the corresponding timestamp!
Error: cannot find the corresponding timestamp!
Error: cannot find the corresponding timestamp!
Error: cannot find the corresponding timestamp!
Error: cannot find the corresponding timestamp!
Error: cannot find the corresponding timestamp!
Error: cannot find the corresponding timestamp!
Error: cannot find the corresponding timestamp!
Error: cannot find the corresponding timestamp!
Error: cannot find the corresponding timestamp!
Error: cannot find the corresponding timestamp!
Error: cannot find the corresponding timestamp!
Error: cannot find the corresponding timestamp!
Error: cannot find the corresponding timestamp!
Error: cannot find the corresponding timestamp!
Error: cannot find the corresponding timestamp!
Error: cannot find the corresponding timestamp!
Error: cannot find the corresponding timestamp!
Error: cannot find the corresponding timestamp!
Error: cannot find the corresponding timestamp!
Error: cannot find the corresponding timestamp!
Error: cannot find the corresponding timestamp!
Error: cannot find the corresponding timestamp!
Error: cannot find the corresponding timestamp!
Error: cannot find the corresponding timestamp!
Error: cannot find the corresponding timestamp!
Error: cannot find the corresponding timestamp!
Error: cannot find the corresponding timestamp!
Error: cannot find the corresponding timestamp!
Error: cannot find the corresponding timestamp!
Error: cannot find the corresponding timestamp!
Error: cannot find the corresponding timestamp!
Error: cannot find the corresponding timestamp!
Error: cannot find the corresponding timestamp!
Error: cannot find the corresponding timestamp!
Error: cannot find the corresponding timestamp!
Error: cannot find the corresponding timestamp!
Error: cannot find the corresponding timestamp!
Error: cannot find the corresponding timestamp!
Error: cannot find the corresponding timestamp!
Error: cannot find the corresponding timestamp!
Error: cannot find the corresponding timestamp!
Error: cannot find the corresponding timestamp!
Error: cannot find the corresponding timestamp!
Error: cannot find the corresponding timestamp!
Error: cannot find the corresponding timestamp!
Error: cannot find the corresponding timestamp!
Error: cannot find the corresponding timestamp!
Error: cannot find the corresponding timestamp!
Error: cannot find the corresponding timestamp!
Error: cannot find the corresponding timestamp!
Error: cannot find the corresponding timestamp!
Error: cannot find the corresponding timestamp!
Error: cannot find the corresponding timestamp!
Error: cannot find the corresponding timestamp!
Error: cannot find the corresponding timestamp!
Error: cannot find the corresponding timestamp!
Error: cannot find the corresponding timestamp!
Error: cannot find the corresponding timestamp!
Error: cannot find the corresponding timestamp!
Error: cannot find the corresponding timestamp!
Error: cannot find the corresponding timestamp!
Error: cannot find the corresponding timestamp!
Error: cannot find the corresponding timestamp!
Error: cannot find the corresponding timestamp!
Error: cannot find the corresponding timestamp!
Error: cannot find the corresponding timestamp!
Error: cannot find the corresponding timestamp!
Error: cannot find the corresponding timestamp!
Error: cannot find the corresponding timestamp!
Error: cannot find the corresponding timestamp!
Error: cannot find the corresponding timestamp!
Error: cannot find the corresponding timestamp!
Error: cannot find the corresponding timestamp!
Error: cannot find the corresponding timestamp!
Error: cannot find the corresponding timestamp!
Error: cannot find the corresponding timestamp!
Error: cannot find the corresponding timestamp!
Error: cannot find the corresponding timestamp!
Error: cannot find the corresponding timestamp!
Error: cannot find the corresponding timestamp!
Error: cannot find the corresponding timestamp!
Error: cannot find the corresponding timestamp!
Error: cannot find the corresponding timestamp!
Error: cannot find the corresponding timestamp!
Error: cannot find the corresponding timestamp!
Error: cannot find the corresponding timestamp!
Error: cannot find the corresponding timestamp!
Error: cannot find the corresponding timestamp!
Error: cannot find the corresponding timestamp!
Error: cannot find the corresponding timestamp!
Error: cannot find the corresponding timestamp!
Error: cannot find the corresponding timestamp!
Error: cannot find the corresponding timestamp!
Error: cannot find the corresponding timestamp!
Error: cannot find the corresponding timestamp!
Error: cannot find the corresponding timestamp!
Error: cannot find the corresponding timestamp!
Error: cannot find the corresponding timestamp!
Error: cannot find the corresponding timestamp!
Error: cannot find the corresponding timestamp!
Error: cannot find the corresponding timestamp!
Error: cannot find the corresponding timestamp!
Error: cannot find the corresponding timestamp!
Error: cannot find the corresponding timestamp!
Error: cannot find the corresponding timestamp!
Error: cannot find the corresponding timestamp!
Error: cannot find the corresponding timestamp!
Error: cannot find the corresponding timestamp!
Error: cannot find the corresponding timestamp!
Error: cannot find the corresponding timestamp!
Error: cannot find the corresponding timestamp!
Error: cannot find the corresponding timestamp!
Error: cannot find the corresponding timestamp!
Error: cannot find the corresponding timestamp!
Error: cannot find the corresponding timestamp!
Error: cannot find the corresponding timestamp!
Error: cannot find the corresponding timestamp!
Error: cannot find the corresponding timestamp!
Error: cannot find the corresponding timestamp!
Error: cannot find the corresponding timestamp!
Error: cannot find the corresponding timestamp!
Error: cannot find the corresponding timestamp!
Error: cannot find the corresponding timestamp!
Error: cannot find the corresponding timestamp!
Error: cannot find the corresponding timestamp!
Error: cannot find the corresponding timestamp!
Error: cannot find the corresponding timestamp!
Error: cannot find the corresponding timestamp!
Error: cannot find the corresponding timestamp!
Error: cannot find the corresponding timestamp!
Error: cannot find the corresponding timestamp!
Error: cannot find the corresponding timestamp!
Error: cannot find the corresponding timestamp!
Error: cannot find the corresponding timestamp!
Error: cannot find the corresponding timestamp!
Error: cannot find the corresponding timestamp!
Error: cannot find the corresponding timestamp!
Error: cannot find the corresponding timestamp!
Error: cannot find the corresponding timestamp!
Error: cannot find the corresponding timestamp!
Error: cannot find the corresponding timestamp!
Error: cannot find the corresponding timestamp!
Error: cannot find the corresponding timestamp!
Error: cannot find the corresponding timestamp!
Error: cannot find the corresponding timestamp!
Error: cannot find the corresponding timestamp!
Error: cannot find the corresponding timestamp!
Error: cannot find the corresponding timestamp!
Error: cannot find the corresponding timestamp!
Error: cannot find the corresponding timestamp!
Error: cannot find the corresponding timestamp!
Error: cannot find the corresponding timestamp!
Error: cannot find the corresponding timestamp!
Error: cannot find the corresponding timestamp!
Error: cannot find the corresponding timestamp!
Error: cannot find the corresponding timestamp!
Error: cannot find the corresponding timestamp!
Error: cannot find the corresponding timestamp!
Error: cannot find the corresponding timestamp!
Error: cannot find the corresponding timestamp!
Error: cannot find the corresponding timestamp!
Error: cannot find the corresponding timestamp!
Error: cannot find the corresponding timestamp!
Error: cannot find the corresponding timestamp!
Error: cannot find the corresponding timestamp!
Error: cannot find the corresponding timestamp!
Error: cannot find the corresponding timestamp!
Error: cannot find the corresponding timestamp!
Error: cannot find the corresponding timestamp!
Error: cannot find the corresponding timestamp!
Error: cannot find the corresponding timestamp!
Error: cannot find the corresponding timestamp!
Error: cannot find the corresponding timestamp!
Error: cannot find the corresponding timestamp!
Error: cannot find the corresponding timestamp!
Error: cannot find the corresponding timestamp!
Error: cannot find the corresponding timestamp!
Error: cannot find the corresponding timestamp!
Error: cannot find the corresponding timestamp!
Error: cannot find the corresponding timestamp!
Error: cannot find the corresponding timestamp!
Error: cannot find the corresponding timestamp!
Error: cannot find the corresponding timestamp!
Error: cannot find the corresponding timestamp!
Error: cannot find the corresponding timestamp!
Error: cannot find the corresponding timestamp!
Error: cannot find the corresponding timestamp!
Error: cannot find the corresponding timestamp!
Error: cannot find the corresponding timestamp!
Error: cannot find the corresponding timestamp!
Error: cannot find the corresponding timestamp!
Error: cannot find the corresponding timestamp!
Error: cannot find the corresponding timestamp!
Error: cannot find the corresponding timestamp!
Error: cannot find the corresponding timestamp!
Error: cannot find the corresponding timestamp!
Error: cannot find the corresponding timestamp!
Error: cannot find the corresponding timestamp!
Error: cannot find the corresponding timestamp!
Error: cannot find the corresponding timestamp!
Error: cannot find the corresponding timestamp!
Error: cannot find the corresponding timestamp!
Error: cannot find the corresponding timestamp!
Error: cannot find the corresponding timestamp!
Error: cannot find the corresponding timestamp!
Error: cannot find the corresponding timestamp!
Error: cannot find the corresponding timestamp!
Error: cannot find the corresponding timestamp!
Error: cannot find the corresponding timestamp!
Error: cannot find the corresponding timestamp!
Error: cannot find the corresponding timestamp!
Error: cannot find the corresponding timestamp!
Error: cannot find the corresponding timestamp!
Error: cannot find the corresponding timestamp!
Error: cannot find the corresponding timestamp!
Error: cannot find the corresponding timestamp!
Error: cannot find the corresponding timestamp!
Error: cannot find the corresponding timestamp!
Error: cannot find the corresponding timestamp!
Error: cannot find the corresponding timestamp!
Error: cannot find the corresponding timestamp!
Error: cannot find the corresponding timestamp!
Error: cannot find the corresponding timestamp!
Error: cannot find the corresponding timestamp!
Error: cannot find the corresponding timestamp!
Error: cannot find the corresponding timestamp!
Error: cannot find the corresponding timestamp!
Error: cannot find the corresponding timestamp!
Error: cannot find the corresponding timestamp!
Error: cannot find the corresponding timestamp!
Error: cannot find the corresponding timestamp!
Error: cannot find the corresponding timestamp!
Error: cannot find the corresponding timestamp!
Error: cannot find the corresponding timestamp!
Error: cannot find the corresponding timestamp!
Error: cannot find the corresponding timestamp!
Error: cannot find the corresponding timestamp!
Error: cannot find the corresponding timestamp!
Error: cannot find the corresponding timestamp!
Error: cannot find the corresponding timestamp!
Error: cannot find the corresponding timestamp!
Error: cannot find the corresponding timestamp!
Error: cannot find the corresponding timestamp!
Error: cannot find the corresponding timestamp!
Error: cannot find the corresponding timestamp!
Error: cannot find the corresponding timestamp!
Error: cannot find the corresponding timestamp!
Error: cannot find the corresponding timestamp!
Error: cannot find the corresponding timestamp!
Error: cannot find the corresponding timestamp!
Error: cannot find the corresponding timestamp!
Error: cannot find the corresponding timestamp!
Error: cannot find the corresponding timestamp!
Error: cannot find the corresponding timestamp!
Error: cannot find the corresponding timestamp!
Error: cannot find the corresponding timestamp!
Error: cannot find the corresponding timestamp!
Error: cannot find the corresponding timestamp!
Error: cannot find the corresponding timestamp!
Error: cannot find the corresponding timestamp!
Error: cannot find the corresponding timestamp!
Error: cannot find the corresponding timestamp!
Error: cannot find the corresponding timestamp!
Error: cannot find the corresponding timestamp!
Error: cannot find the corresponding timestamp!
Error: cannot find the corresponding timestamp!
Error: cannot find the corresponding timestamp!
Error: cannot find the corresponding timestamp!
Error: cannot find the corresponding timestamp!
Error: cannot find the corresponding timestamp!
Error: cannot find the corresponding timestamp!
Error: cannot find the corresponding timestamp!
Error: cannot find the corresponding timestamp!
Error: cannot find the corresponding timestamp!
Error: cannot find the corresponding timestamp!
Error: cannot find the corresponding timestamp!
Error: cannot find the corresponding timestamp!
Error: cannot find the corresponding timestamp!
Error: cannot find the corresponding timestamp!
Error: cannot find the corresponding timestamp!
Error: cannot find the corresponding timestamp!
Error: cannot find the corresponding timestamp!
Error: cannot find the corresponding timestamp!
Error: cannot find the corresponding timestamp!
Error: cannot find the corresponding timestamp!
Error: cannot find the corresponding timestamp!
Error: cannot find the corresponding timestamp!
Error: cannot find the corresponding timestamp!
Error: cannot find the corresponding timestamp!
Error: cannot find the corresponding timestamp!
Error: cannot find the corresponding timestamp!
Error: cannot find the corresponding timestamp!
Error: cannot find the corresponding timestamp!
Error: cannot find the corresponding timestamp!
Error: cannot find the corresponding timestamp!
Error: cannot find the corresponding timestamp!
Error: cannot find the corresponding timestamp!
Error: cannot find the corresponding timestamp!
Error: cannot find the corresponding timestamp!
Error: cannot find the corresponding timestamp!
Error: cannot find the corresponding timestamp!
Error: cannot find the corresponding timestamp!
Error: cannot find the corresponding timestamp!
Error: cannot find the corresponding timestamp!
Error: cannot find the corresponding timestamp!
Error: cannot find the corresponding timestamp!
Error: cannot find the corresponding timestamp!
Error: cannot find the corresponding timestamp!
Heartbeat CPU 0 instructions: 100000002 cycles: 42896839 heartbeat IPC: 1.66954 cumulative IPC: 1.54245 (Simulation time: 0 hr 57 min 31 sec) 
Finished CPU 0 instructions: 50000001 cycles: 32415986 cumulative IPC: 1.54245 (Simulation time: 0 hr 57 min 31 sec) 

ChampSim completed all CPUs

Region of Interest Statistics

CPU 0 cumulative IPC: 1.54245 instructions: 50000001 cycles: 32415986
L1D TOTAL     ACCESS:   11065746  HIT:   10433054  MISS:     632692
L1D LOAD      ACCESS:    6258018  HIT:    5715174  MISS:     542844
L1D RFO       ACCESS:    4807728  HIT:    4717880  MISS:      89848
L1D PREFETCH  ACCESS:          0  HIT:          0  MISS:          0
L1D WRITEBACK ACCESS:          0  HIT:          0  MISS:          0
L1D PREFETCH  REQUESTED:          0  ISSUED:          0  USEFUL:          0  USELESS:          0
L1D AVERAGE MISS LATENCY: 38.0229 cycles
L1I TOTAL     ACCESS:   13919454  HIT:   12723609  MISS:    1195845
L1I LOAD      ACCESS:    4569226  HIT:    3949686  MISS:     619540
L1I RFO       ACCESS:          0  HIT:          0  MISS:          0
L1I PREFETCH  ACCESS:    9350228  HIT:    8773923  MISS:     576305
L1I WRITEBACK ACCESS:          0  HIT:          0  MISS:          0
L1I PREFETCH  REQUESTED:   13108635  ISSUED:   13108618  USEFUL:     563235  USELESS:      13102
L1I AVERAGE MISS LATENCY: 12.5095 cycles
L2C TOTAL     ACCESS:    2077411  HIT:    1242945  MISS:     834466
L2C LOAD      ACCESS:     738106  HIT:     418584  MISS:     319522
L2C RFO       ACCESS:      89802  HIT:      38108  MISS:      51694
L2C PREFETCH  ACCESS:    1000545  HIT:     539836  MISS:     460709
L2C WRITEBACK ACCESS:     248958  HIT:     246417  MISS:       2541
L2C PREFETCH  REQUESTED:          0  ISSUED:          0  USEFUL:     167135  USELESS:     292805
L2C AVERAGE MISS LATENCY: 37.1733 cycles
LLC TOTAL     ACCESS:     971405  HIT:     879522  MISS:      91883
LLC LOAD      ACCESS:     319500  HIT:     261613  MISS:      57887
LLC RFO       ACCESS:      51691  HIT:      34862  MISS:      16829
LLC PREFETCH  ACCESS:     460709  HIT:     443623  MISS:      17086
LLC WRITEBACK ACCESS:     139505  HIT:     139424  MISS:         81
LLC PREFETCH  REQUESTED:          0  ISSUED:          0  USEFUL:       8279  USELESS:       9127
LLC AVERAGE MISS LATENCY: 156.502 cycles
CPU 0 L1I FDIP final stats

DRAM Statistics
 CHANNEL 0
 RQ ROW_BUFFER_HIT:      12103  ROW_BUFFER_MISS:      79694
 DBUS_CONGESTED:      41458
 WQ ROW_BUFFER_HIT:      13447  ROW_BUFFER_MISS:      38095  FULL:          0

 AVG_CONGESTED_CYCLE: 6

CPU 0 Branch Prediction Accuracy: 95.3263% MPKI: 8.77944 Average ROB Occupancy at Mispredict: 164.986
Branch type MPKI
BRANCH_DIRECT_JUMP: 0.1372
BRANCH_INDIRECT: 0.4927
BRANCH_CONDITIONAL: 5.80956
BRANCH_DIRECT_CALL: 0.3067
BRANCH_INDIRECT_CALL: 0.75052
BRANCH_RETURN: 1.28276

