
VirtualMemory physical capacity: 8589934592 num_ppages: 2097152
VirtualMemory page size: 4096 log2_page_size: 12
VirtualMemory initalizing ppage free list ... done
VirtualMemory shuffling ppage free list ... done

 (TOTAL 523355 bits 511 Kbits) 
*** ChampSim Multicore Out-of-Order Simulator ***

Warmup Instructions: 50000000
Simulation Instructions: 50000000
Number of CPUs: 1
LLC sets: 2048
LLC ways: 16
Off-chip DRAM Size: 4096 MB Channels: 1 Width: 64-bit Data Rate: 3200 MT/s

CPU 0 runs /home/isaachywong/champsim-pt/ipc1_public/spec_x264_001.champsimtrace.xz
CPU 0 Tage branch predictor
CPU 0 L1I FDIP
Basic BTB sets: 2048 ways: 4 indirect buffer size: 4096 RAS size: 32
Heartbeat CPU 0 instructions: 10000004 cycles: 2097804 heartbeat IPC: 4.76689 cumulative IPC: 4.76689 (Simulation time: 0 hr 4 min 49 sec) 
Heartbeat CPU 0 instructions: 20000002 cycles: 4164783 heartbeat IPC: 4.83798 cumulative IPC: 4.80217 (Simulation time: 0 hr 9 min 38 sec) 
Heartbeat CPU 0 instructions: 30000001 cycles: 6252121 heartbeat IPC: 4.79079 cumulative IPC: 4.79837 (Simulation time: 0 hr 14 min 30 sec) 
Heartbeat CPU 0 instructions: 40000002 cycles: 8341922 heartbeat IPC: 4.78515 cumulative IPC: 4.79506 (Simulation time: 0 hr 19 min 17 sec) 
Heartbeat CPU 0 instructions: 50000001 cycles: 10411478 heartbeat IPC: 4.83195 cumulative IPC: 4.80239 (Simulation time: 0 hr 24 min 8 sec) 

Warmup complete CPU 0 instructions: 50000001 cycles: 10411478 (Simulation time: 0 hr 24 min 8 sec) 

Heartbeat CPU 0 instructions: 60000004 cycles: 13734256 heartbeat IPC: 3.00953 cumulative IPC: 3.00953 (Simulation time: 0 hr 27 min 50 sec) 
Heartbeat CPU 0 instructions: 70000004 cycles: 17040537 heartbeat IPC: 3.02455 cumulative IPC: 3.01702 (Simulation time: 0 hr 31 min 25 sec) 
Heartbeat CPU 0 instructions: 80000002 cycles: 20470908 heartbeat IPC: 2.91514 cumulative IPC: 2.98228 (Simulation time: 0 hr 35 min 3 sec) 
Heartbeat CPU 0 instructions: 90000000 cycles: 23844800 heartbeat IPC: 2.96394 cumulative IPC: 2.97767 (Simulation time: 0 hr 38 min 42 sec) 
Heartbeat CPU 0 instructions: 100000004 cycles: 27180866 heartbeat IPC: 2.99754 cumulative IPC: 2.98162 (Simulation time: 0 hr 42 min 17 sec) 
Finished CPU 0 instructions: 50000003 cycles: 16769388 cumulative IPC: 2.98162 (Simulation time: 0 hr 42 min 17 sec) 

ChampSim completed all CPUs

Region of Interest Statistics

CPU 0 cumulative IPC: 2.98162 instructions: 50000003 cycles: 16769388
L1D TOTAL     ACCESS:    6724658  HIT:    6656435  MISS:      68223
L1D LOAD      ACCESS:    3850365  HIT:    3802800  MISS:      47565
L1D RFO       ACCESS:    2874293  HIT:    2853635  MISS:      20658
L1D PREFETCH  ACCESS:          0  HIT:          0  MISS:          0
L1D WRITEBACK ACCESS:          0  HIT:          0  MISS:          0
L1D PREFETCH  REQUESTED:          0  ISSUED:          0  USEFUL:          0  USELESS:          0
L1D AVERAGE MISS LATENCY: 92.6044 cycles
L1I TOTAL     ACCESS:    6794388  HIT:    6533046  MISS:     261342
L1I LOAD      ACCESS:     937141  HIT:     857933  MISS:      79208
L1I RFO       ACCESS:          0  HIT:          0  MISS:          0
L1I PREFETCH  ACCESS:    5857247  HIT:    5675113  MISS:     182134
L1I WRITEBACK ACCESS:          0  HIT:          0  MISS:          0
L1I PREFETCH  REQUESTED:    7022589  ISSUED:    7022385  USEFUL:     181285  USELESS:        867
L1I AVERAGE MISS LATENCY: 8.58714 cycles
L2C TOTAL     ACCESS:     354942  HIT:     318675  MISS:      36267
L2C LOAD      ACCESS:      64792  HIT:      44128  MISS:      20664
L2C RFO       ACCESS:      20240  HIT:       6788  MISS:      13452
L2C PREFETCH  ACCESS:     244113  HIT:     242052  MISS:       2061
L2C WRITEBACK ACCESS:      25797  HIT:      25707  MISS:         90
L2C PREFETCH  REQUESTED:          0  ISSUED:          0  USEFUL:        772  USELESS:       1035
L2C AVERAGE MISS LATENCY: 155.943 cycles
LLC TOTAL     ACCESS:      49794  HIT:      21972  MISS:      27822
LLC LOAD      ACCESS:      20663  HIT:       6216  MISS:      14447
LLC RFO       ACCESS:      13452  HIT:        441  MISS:      13011
LLC PREFETCH  ACCESS:       2061  HIT:       1775  MISS:        286
LLC WRITEBACK ACCESS:      13618  HIT:      13540  MISS:         78
LLC PREFETCH  REQUESTED:          0  ISSUED:          0  USEFUL:         90  USELESS:        661
LLC AVERAGE MISS LATENCY: 177.273 cycles
CPU 0 L1I FDIP final stats

DRAM Statistics
 CHANNEL 0
 RQ ROW_BUFFER_HIT:       2578  ROW_BUFFER_MISS:      25166
 DBUS_CONGESTED:      12510
 WQ ROW_BUFFER_HIT:        643  ROW_BUFFER_MISS:      10969  FULL:          0

 AVG_CONGESTED_CYCLE: 6

CPU 0 Branch Prediction Accuracy: 93.9673% MPKI: 3.69416 Average ROB Occupancy at Mispredict: 174.916
Branch type MPKI
BRANCH_DIRECT_JUMP: 0.0004
BRANCH_INDIRECT: 0
BRANCH_CONDITIONAL: 3.6271
BRANCH_DIRECT_CALL: 4e-05
BRANCH_INDIRECT_CALL: 0.06662
BRANCH_RETURN: 0

