
VirtualMemory physical capacity: 8589934592 num_ppages: 2097152
VirtualMemory page size: 4096 log2_page_size: 12
VirtualMemory initalizing ppage free list ... done
VirtualMemory shuffling ppage free list ... done

 (TOTAL 523355 bits 511 Kbits) 
*** ChampSim Multicore Out-of-Order Simulator ***

Warmup Instructions: 50000000
Simulation Instructions: 50000000
Number of CPUs: 1
LLC sets: 2048
LLC ways: 16
Off-chip DRAM Size: 4096 MB Channels: 1 Width: 64-bit Data Rate: 3200 MT/s

CPU 0 runs /home/isaachywong/champsim-pt/ipc1_public/client_008.champsimtrace.xz
CPU 0 Tage branch predictor
CPU 0 L1I FDIP
Basic BTB sets: 2048 ways: 4 indirect buffer size: 4096 RAS size: 32
Heartbeat CPU 0 instructions: 10000004 cycles: 2739523 heartbeat IPC: 3.65027 cumulative IPC: 3.65027 (Simulation time: 0 hr 8 min 7 sec) 
Heartbeat CPU 0 instructions: 20000004 cycles: 5534530 heartbeat IPC: 3.57781 cumulative IPC: 3.61368 (Simulation time: 0 hr 16 min 17 sec) 
Heartbeat CPU 0 instructions: 30000002 cycles: 8290113 heartbeat IPC: 3.629 cumulative IPC: 3.61877 (Simulation time: 0 hr 24 min 15 sec) 
Heartbeat CPU 0 instructions: 40000004 cycles: 11121623 heartbeat IPC: 3.53169 cumulative IPC: 3.5966 (Simulation time: 0 hr 32 min 18 sec) 
Heartbeat CPU 0 instructions: 50000001 cycles: 13928657 heartbeat IPC: 3.56248 cumulative IPC: 3.58972 (Simulation time: 0 hr 40 min 33 sec) 

Warmup complete CPU 0 instructions: 50000001 cycles: 13928657 (Simulation time: 0 hr 40 min 33 sec) 

Heartbeat CPU 0 instructions: 60000003 cycles: 21078650 heartbeat IPC: 1.3986 cumulative IPC: 1.3986 (Simulation time: 0 hr 45 min 41 sec) 
Heartbeat CPU 0 instructions: 70000001 cycles: 27638693 heartbeat IPC: 1.52438 cumulative IPC: 1.45879 (Simulation time: 0 hr 50 min 41 sec) 
Heartbeat CPU 0 instructions: 80000000 cycles: 35270810 heartbeat IPC: 1.31025 cumulative IPC: 1.40567 (Simulation time: 0 hr 55 min 23 sec) 
Heartbeat CPU 0 instructions: 90000001 cycles: 41485222 heartbeat IPC: 1.60916 cumulative IPC: 1.45156 (Simulation time: 0 hr 59 min 56 sec) 
Heartbeat CPU 0 instructions: 100000002 cycles: 48528102 heartbeat IPC: 1.41987 cumulative IPC: 1.44511 (Simulation time: 1 hr 5 min 1 sec) 
Finished CPU 0 instructions: 50000001 cycles: 34599445 cumulative IPC: 1.44511 (Simulation time: 1 hr 5 min 1 sec) 

ChampSim completed all CPUs

Region of Interest Statistics

CPU 0 cumulative IPC: 1.44511 instructions: 50000001 cycles: 34599445
L1D TOTAL     ACCESS:   12356756  HIT:   11487348  MISS:     869408
L1D LOAD      ACCESS:    7615710  HIT:    6863406  MISS:     752304
L1D RFO       ACCESS:    4741046  HIT:    4623942  MISS:     117104
L1D PREFETCH  ACCESS:          0  HIT:          0  MISS:          0
L1D WRITEBACK ACCESS:          0  HIT:          0  MISS:          0
L1D PREFETCH  REQUESTED:          0  ISSUED:          0  USEFUL:          0  USELESS:          0
L1D AVERAGE MISS LATENCY: 42.4973 cycles
L1I TOTAL     ACCESS:   14102320  HIT:   13392336  MISS:     709984
L1I LOAD      ACCESS:    3473789  HIT:    3132466  MISS:     341323
L1I RFO       ACCESS:          0  HIT:          0  MISS:          0
L1I PREFETCH  ACCESS:   10628531  HIT:   10259870  MISS:     368661
L1I WRITEBACK ACCESS:          0  HIT:          0  MISS:          0
L1I PREFETCH  REQUESTED:   15194580  ISSUED:   15194500  USEFUL:     352327  USELESS:      16363
L1I AVERAGE MISS LATENCY: 9.30373 cycles
L2C TOTAL     ACCESS:    1747366  HIT:    1429419  MISS:     317947
L2C LOAD      ACCESS:     879135  HIT:     688745  MISS:     190390
L2C RFO       ACCESS:     117104  HIT:      14514  MISS:     102590
L2C PREFETCH  ACCESS:     583146  HIT:     558674  MISS:      24472
L2C WRITEBACK ACCESS:     167981  HIT:     167486  MISS:        495
L2C PREFETCH  REQUESTED:          0  ISSUED:          0  USEFUL:      13067  USELESS:      12216
L2C AVERAGE MISS LATENCY: 92.9031 cycles
LLC TOTAL     ACCESS:     447030  HIT:     303362  MISS:     143668
LLC LOAD      ACCESS:     190383  HIT:     146931  MISS:      43452
LLC RFO       ACCESS:     102589  HIT:       9619  MISS:      92970
LLC PREFETCH  ACCESS:      24472  HIT:      17451  MISS:       7021
LLC WRITEBACK ACCESS:     129586  HIT:     129361  MISS:        225
LLC PREFETCH  REQUESTED:          0  ISSUED:          0  USEFUL:       2249  USELESS:       5932
LLC AVERAGE MISS LATENCY: 161.405 cycles
CPU 0 L1I FDIP final stats

DRAM Statistics
 CHANNEL 0
 RQ ROW_BUFFER_HIT:      37585  ROW_BUFFER_MISS:     105839
 DBUS_CONGESTED:      82178
 WQ ROW_BUFFER_HIT:      25017  ROW_BUFFER_MISS:      60306  FULL:          0

 AVG_CONGESTED_CYCLE: 6

CPU 0 Branch Prediction Accuracy: 95.1209% MPKI: 11.388 Average ROB Occupancy at Mispredict: 190.521
Branch type MPKI
BRANCH_DIRECT_JUMP: 0.02314
BRANCH_INDIRECT: 1.26656
BRANCH_CONDITIONAL: 7.30606
BRANCH_DIRECT_CALL: 0.03914
BRANCH_INDIRECT_CALL: 2.73406
BRANCH_RETURN: 0.01904

