
VirtualMemory physical capacity: 8589934592 num_ppages: 2097152
VirtualMemory page size: 4096 log2_page_size: 12
VirtualMemory initalizing ppage free list ... done
VirtualMemory shuffling ppage free list ... done

 (TOTAL 523355 bits 511 Kbits) 
*** ChampSim Multicore Out-of-Order Simulator ***

Warmup Instructions: 50000000
Simulation Instructions: 50000000
Number of CPUs: 1
LLC sets: 2048
LLC ways: 16
Off-chip DRAM Size: 4096 MB Channels: 1 Width: 64-bit Data Rate: 3200 MT/s

CPU 0 runs /home/isaachywong/champsim-pt/ipc1_public/server_034.champsimtrace.xz
CPU 0 Tage branch predictor
CPU 0 L1I FDIP
Basic BTB sets: 2048 ways: 4 indirect buffer size: 4096 RAS size: 32
Heartbeat CPU 0 instructions: 10000003 cycles: 2135008 heartbeat IPC: 4.68382 cumulative IPC: 4.68382 (Simulation time: 0 hr 4 min 40 sec) 
Heartbeat CPU 0 instructions: 20000002 cycles: 4267589 heartbeat IPC: 4.68915 cumulative IPC: 4.68649 (Simulation time: 0 hr 9 min 15 sec) 
Heartbeat CPU 0 instructions: 30000002 cycles: 6401674 heartbeat IPC: 4.68585 cumulative IPC: 4.68627 (Simulation time: 0 hr 13 min 53 sec) 
Heartbeat CPU 0 instructions: 40000002 cycles: 8536057 heartbeat IPC: 4.68519 cumulative IPC: 4.686 (Simulation time: 0 hr 18 min 31 sec) 
Heartbeat CPU 0 instructions: 50000002 cycles: 10671161 heartbeat IPC: 4.68361 cumulative IPC: 4.68553 (Simulation time: 0 hr 23 min 6 sec) 

Warmup complete CPU 0 instructions: 50000002 cycles: 10671161 (Simulation time: 0 hr 23 min 6 sec) 

Heartbeat CPU 0 instructions: 60000002 cycles: 16625909 heartbeat IPC: 1.67933 cumulative IPC: 1.67933 (Simulation time: 0 hr 29 min 8 sec) 
Heartbeat CPU 0 instructions: 70000004 cycles: 22751012 heartbeat IPC: 1.63263 cumulative IPC: 1.65565 (Simulation time: 0 hr 35 min 19 sec) 
Heartbeat CPU 0 instructions: 80000002 cycles: 28705729 heartbeat IPC: 1.67934 cumulative IPC: 1.66347 (Simulation time: 0 hr 41 min 21 sec) 
Heartbeat CPU 0 instructions: 90000002 cycles: 34663150 heartbeat IPC: 1.67858 cumulative IPC: 1.66722 (Simulation time: 0 hr 47 min 23 sec) 
Heartbeat CPU 0 instructions: 100000000 cycles: 40629574 heartbeat IPC: 1.67605 cumulative IPC: 1.66898 (Simulation time: 0 hr 53 min 25 sec) 
Finished CPU 0 instructions: 50000002 cycles: 29958414 cumulative IPC: 1.66898 (Simulation time: 0 hr 53 min 25 sec) 

ChampSim completed all CPUs

Region of Interest Statistics

CPU 0 cumulative IPC: 1.66898 instructions: 50000002 cycles: 29958414
L1D TOTAL     ACCESS:   12305907  HIT:   11699610  MISS:     606297
L1D LOAD      ACCESS:    6042178  HIT:    5520639  MISS:     521539
L1D RFO       ACCESS:    6263729  HIT:    6178971  MISS:      84758
L1D PREFETCH  ACCESS:          0  HIT:          0  MISS:          0
L1D WRITEBACK ACCESS:          0  HIT:          0  MISS:          0
L1D PREFETCH  REQUESTED:          0  ISSUED:          0  USEFUL:          0  USELESS:          0
L1D AVERAGE MISS LATENCY: 13.3029 cycles
L1I TOTAL     ACCESS:   18669691  HIT:   15294811  MISS:    3374880
L1I LOAD      ACCESS:    5984835  HIT:    4071985  MISS:    1912850
L1I RFO       ACCESS:          0  HIT:          0  MISS:          0
L1I PREFETCH  ACCESS:   12684856  HIT:   11222826  MISS:    1462030
L1I WRITEBACK ACCESS:          0  HIT:          0  MISS:          0
L1I PREFETCH  REQUESTED:   18996103  ISSUED:   18995964  USEFUL:    1420916  USELESS:      41138
L1I AVERAGE MISS LATENCY: 8.47654 cycles
L2C TOTAL     ACCESS:    4210392  HIT:    4147843  MISS:      62549
L2C LOAD      ACCESS:    1580111  HIT:    1540868  MISS:      39243
L2C RFO       ACCESS:      84750  HIT:      74923  MISS:       9827
L2C PREFETCH  ACCESS:    2316262  HIT:    2304712  MISS:      11550
L2C WRITEBACK ACCESS:     229269  HIT:     227340  MISS:       1929
L2C PREFETCH  REQUESTED:          0  ISSUED:          0  USEFUL:       6630  USELESS:       4842
L2C AVERAGE MISS LATENCY: 26.5254 cycles
LLC TOTAL     ACCESS:      89773  HIT:      85147  MISS:       4626
LLC LOAD      ACCESS:      39243  HIT:      36499  MISS:       2744
LLC RFO       ACCESS:       9827  HIT:       8068  MISS:       1759
LLC PREFETCH  ACCESS:      11550  HIT:      11429  MISS:        121
LLC WRITEBACK ACCESS:      29153  HIT:      29151  MISS:          2
LLC PREFETCH  REQUESTED:          0  ISSUED:          0  USEFUL:        108  USELESS:        201
LLC AVERAGE MISS LATENCY: 96.5698 cycles
CPU 0 L1I FDIP final stats

DRAM Statistics
 CHANNEL 0
 RQ ROW_BUFFER_HIT:       2669  ROW_BUFFER_MISS:       1955
 DBUS_CONGESTED:       1149
 WQ ROW_BUFFER_HIT:         32  ROW_BUFFER_MISS:        233  FULL:          0

 AVG_CONGESTED_CYCLE: 5

CPU 0 Branch Prediction Accuracy: 96.2285% MPKI: 7.37628 Average ROB Occupancy at Mispredict: 150.264
Branch type MPKI
BRANCH_DIRECT_JUMP: 0.02884
BRANCH_INDIRECT: 0.44418
BRANCH_CONDITIONAL: 5.99666
BRANCH_DIRECT_CALL: 0.05726
BRANCH_INDIRECT_CALL: 0.233
BRANCH_RETURN: 0.61634

