
VirtualMemory physical capacity: 8589934592 num_ppages: 2097152
VirtualMemory page size: 4096 log2_page_size: 12
VirtualMemory initalizing ppage free list ... done
VirtualMemory shuffling ppage free list ... done

 (TOTAL 523355 bits 511 Kbits) 
*** ChampSim Multicore Out-of-Order Simulator ***

Warmup Instructions: 50000000
Simulation Instructions: 50000000
Number of CPUs: 1
LLC sets: 2048
LLC ways: 16
Off-chip DRAM Size: 4096 MB Channels: 1 Width: 64-bit Data Rate: 3200 MT/s

CPU 0 runs /home/isaachywong/champsim-pt/ipc1_public/spec_x264_001.champsimtrace.xz
CPU 0 Tage branch predictor
CPU 0 L1I FDIP
Basic BTB sets: 2048 ways: 4 indirect buffer size: 4096 RAS size: 32
Heartbeat CPU 0 instructions: 10000004 cycles: 2097804 heartbeat IPC: 4.76689 cumulative IPC: 4.76689 (Simulation time: 0 hr 4 min 48 sec) 
Heartbeat CPU 0 instructions: 20000002 cycles: 4164783 heartbeat IPC: 4.83798 cumulative IPC: 4.80217 (Simulation time: 0 hr 9 min 37 sec) 
Heartbeat CPU 0 instructions: 30000001 cycles: 6252118 heartbeat IPC: 4.7908 cumulative IPC: 4.79837 (Simulation time: 0 hr 14 min 30 sec) 
Heartbeat CPU 0 instructions: 40000002 cycles: 8341919 heartbeat IPC: 4.78515 cumulative IPC: 4.79506 (Simulation time: 0 hr 19 min 17 sec) 
Heartbeat CPU 0 instructions: 50000001 cycles: 10411483 heartbeat IPC: 4.83193 cumulative IPC: 4.80239 (Simulation time: 0 hr 24 min 8 sec) 

Warmup complete CPU 0 instructions: 50000001 cycles: 10411483 (Simulation time: 0 hr 24 min 8 sec) 

Heartbeat CPU 0 instructions: 60000004 cycles: 13734210 heartbeat IPC: 3.00958 cumulative IPC: 3.00958 (Simulation time: 0 hr 27 min 50 sec) 
Heartbeat CPU 0 instructions: 70000004 cycles: 17040343 heartbeat IPC: 3.02468 cumulative IPC: 3.01711 (Simulation time: 0 hr 31 min 25 sec) 
Heartbeat CPU 0 instructions: 80000002 cycles: 20470632 heartbeat IPC: 2.91521 cumulative IPC: 2.98236 (Simulation time: 0 hr 35 min 4 sec) 
Heartbeat CPU 0 instructions: 90000000 cycles: 23844516 heartbeat IPC: 2.96394 cumulative IPC: 2.97773 (Simulation time: 0 hr 38 min 44 sec) 
Heartbeat CPU 0 instructions: 100000004 cycles: 27180679 heartbeat IPC: 2.99746 cumulative IPC: 2.98166 (Simulation time: 0 hr 42 min 21 sec) 
Finished CPU 0 instructions: 50000003 cycles: 16769196 cumulative IPC: 2.98166 (Simulation time: 0 hr 42 min 21 sec) 

ChampSim completed all CPUs

Region of Interest Statistics

CPU 0 cumulative IPC: 2.98166 instructions: 50000003 cycles: 16769196
L1D TOTAL     ACCESS:    6724588  HIT:    6656365  MISS:      68223
L1D LOAD      ACCESS:    3850333  HIT:    3802768  MISS:      47565
L1D RFO       ACCESS:    2874255  HIT:    2853597  MISS:      20658
L1D PREFETCH  ACCESS:          0  HIT:          0  MISS:          0
L1D WRITEBACK ACCESS:          0  HIT:          0  MISS:          0
L1D PREFETCH  REQUESTED:          0  ISSUED:          0  USEFUL:          0  USELESS:          0
L1D AVERAGE MISS LATENCY: 92.606 cycles
L1I TOTAL     ACCESS:    6794324  HIT:    6532981  MISS:     261343
L1I LOAD      ACCESS:     937099  HIT:     857888  MISS:      79211
L1I RFO       ACCESS:          0  HIT:          0  MISS:          0
L1I PREFETCH  ACCESS:    5857225  HIT:    5675093  MISS:     182132
L1I WRITEBACK ACCESS:          0  HIT:          0  MISS:          0
L1I PREFETCH  REQUESTED:    7022548  ISSUED:    7022344  USEFUL:     181283  USELESS:        867
L1I AVERAGE MISS LATENCY: 8.58765 cycles
L2C TOTAL     ACCESS:     354943  HIT:     318676  MISS:      36267
L2C LOAD      ACCESS:      64791  HIT:      44126  MISS:      20665
L2C RFO       ACCESS:      20240  HIT:       6788  MISS:      13452
L2C PREFETCH  ACCESS:     244115  HIT:     242055  MISS:       2060
L2C WRITEBACK ACCESS:      25797  HIT:      25707  MISS:         90
L2C PREFETCH  REQUESTED:          0  ISSUED:          0  USEFUL:        772  USELESS:       1035
L2C AVERAGE MISS LATENCY: 155.938 cycles
LLC TOTAL     ACCESS:      49794  HIT:      21974  MISS:      27820
LLC LOAD      ACCESS:      20664  HIT:       6216  MISS:      14448
LLC RFO       ACCESS:      13452  HIT:        441  MISS:      13011
LLC PREFETCH  ACCESS:       2060  HIT:       1777  MISS:        283
LLC WRITEBACK ACCESS:      13618  HIT:      13540  MISS:         78
LLC PREFETCH  REQUESTED:          0  ISSUED:          0  USEFUL:         88  USELESS:        659
LLC AVERAGE MISS LATENCY: 177.278 cycles
CPU 0 L1I FDIP final stats

DRAM Statistics
 CHANNEL 0
 RQ ROW_BUFFER_HIT:       2577  ROW_BUFFER_MISS:      25165
 DBUS_CONGESTED:      12513
 WQ ROW_BUFFER_HIT:        647  ROW_BUFFER_MISS:      10968  FULL:          0

 AVG_CONGESTED_CYCLE: 6

CPU 0 Branch Prediction Accuracy: 93.9668% MPKI: 3.69444 Average ROB Occupancy at Mispredict: 174.918
Branch type MPKI
BRANCH_DIRECT_JUMP: 0.00038
BRANCH_INDIRECT: 0
BRANCH_CONDITIONAL: 3.6274
BRANCH_DIRECT_CALL: 4e-05
BRANCH_INDIRECT_CALL: 0.06662
BRANCH_RETURN: 0

