
VirtualMemory physical capacity: 8589934592 num_ppages: 2097152
VirtualMemory page size: 4096 log2_page_size: 12
VirtualMemory initalizing ppage free list ... done
VirtualMemory shuffling ppage free list ... done

 (TAGE 463917)  (LOOP 1248)  (SC 58190)  (TOTAL 523355 bits 511 Kbits)  (TOTAL 523355 bits 511 Kbits) 
*** ChampSim Multicore Out-of-Order Simulator ***

Warmup Instructions: 50000000
Simulation Instructions: 50000000
Number of CPUs: 1
LLC sets: 2048
LLC ways: 16
Off-chip DRAM Size: 4096 MB Channels: 1 Width: 64-bit Data Rate: 3200 MT/s

CPU 0 runs /home/isaachywong/champsim-pt/ipc1_public/server_026.champsimtrace.xz
CPU 0 Tage branch predictor
CPU 0 L1I FDIP
Basic BTB sets: 2048 ways: 4 indirect buffer size: 4096 RAS size: 32
Heartbeat CPU 0 instructions: 10000002 cycles: 2157885 heartbeat IPC: 4.63417 cumulative IPC: 4.63417 (Simulation time: 0 hr 5 min 28 sec) 
Heartbeat CPU 0 instructions: 20000002 cycles: 4324331 heartbeat IPC: 4.61585 cumulative IPC: 4.62499 (Simulation time: 0 hr 10 min 50 sec) 
Heartbeat CPU 0 instructions: 30000002 cycles: 6482265 heartbeat IPC: 4.63406 cumulative IPC: 4.62801 (Simulation time: 0 hr 16 min 11 sec) 
Heartbeat CPU 0 instructions: 40000002 cycles: 8649155 heartbeat IPC: 4.61491 cumulative IPC: 4.62473 (Simulation time: 0 hr 21 min 33 sec) 
Heartbeat CPU 0 instructions: 50000003 cycles: 10806371 heartbeat IPC: 4.6356 cumulative IPC: 4.6269 (Simulation time: 0 hr 26 min 55 sec) 

Warmup complete CPU 0 instructions: 50000003 cycles: 10806371 (Simulation time: 0 hr 26 min 55 sec) 

*** Reached end of trace: /home/isaachywong/champsim-pt/ipc1_public/server_026.champsimtrace.xz
Heartbeat CPU 0 instructions: 60000004 cycles: 17233616 heartbeat IPC: 1.55588 cumulative IPC: 1.55588 (Simulation time: 0 hr 35 min 8 sec) 
Heartbeat CPU 0 instructions: 70000000 cycles: 23544717 heartbeat IPC: 1.58451 cumulative IPC: 1.57006 (Simulation time: 0 hr 43 min 20 sec) 
Heartbeat CPU 0 instructions: 80000000 cycles: 29954583 heartbeat IPC: 1.5601 cumulative IPC: 1.56673 (Simulation time: 0 hr 51 min 36 sec) 
Heartbeat CPU 0 instructions: 90000004 cycles: 36269603 heartbeat IPC: 1.58353 cumulative IPC: 1.57089 (Simulation time: 0 hr 59 min 41 sec) 
Heartbeat CPU 0 instructions: 100000000 cycles: 42643032 heartbeat IPC: 1.56901 cumulative IPC: 1.57052 (Simulation time: 1 hr 7 min 54 sec) 
Finished CPU 0 instructions: 50000002 cycles: 31836662 cumulative IPC: 1.57052 (Simulation time: 1 hr 7 min 54 sec) 

ChampSim completed all CPUs

Region of Interest Statistics

CPU 0 cumulative IPC: 1.57052 instructions: 50000002 cycles: 31836662
L1D TOTAL     ACCESS:   13044281  HIT:   11980354  MISS:    1063927
L1D LOAD      ACCESS:    6784519  HIT:    6009171  MISS:     775348
L1D RFO       ACCESS:    6259762  HIT:    5971183  MISS:     288579
L1D PREFETCH  ACCESS:          0  HIT:          0  MISS:          0
L1D WRITEBACK ACCESS:          0  HIT:          0  MISS:          0
L1D PREFETCH  REQUESTED:          0  ISSUED:          0  USEFUL:          0  USELESS:          0
L1D AVERAGE MISS LATENCY: 19.9209 cycles
L1I TOTAL     ACCESS:   21819892  HIT:   18856847  MISS:    2963045
L1I LOAD      ACCESS:    5852417  HIT:    4334641  MISS:    1517776
L1I RFO       ACCESS:          0  HIT:          0  MISS:          0
L1I PREFETCH  ACCESS:   15967475  HIT:   14522206  MISS:    1445269
L1I WRITEBACK ACCESS:          0  HIT:          0  MISS:          0
L1I PREFETCH  REQUESTED:   22424347  ISSUED:   22424346  USEFUL:    1299951  USELESS:     145323
L1I AVERAGE MISS LATENCY: 10.0552 cycles
L2C TOTAL     ACCESS:    4538458  HIT:    3887848  MISS:     650610
L2C LOAD      ACCESS:    1620744  HIT:    1359977  MISS:     260767
L2C RFO       ACCESS:     288484  HIT:     195118  MISS:      93366
L2C PREFETCH  ACCESS:    2117642  HIT:    1835721  MISS:     281921
L2C WRITEBACK ACCESS:     511588  HIT:     497032  MISS:      14556
L2C PREFETCH  REQUESTED:          0  ISSUED:          0  USEFUL:     115880  USELESS:     165840
L2C AVERAGE MISS LATENCY: 25.9152 cycles
LLC TOTAL     ACCESS:     778247  HIT:     758551  MISS:      19696
LLC LOAD      ACCESS:     260752  HIT:     253458  MISS:       7294
LLC RFO       ACCESS:      93362  HIT:      81622  MISS:      11740
LLC PREFETCH  ACCESS:     281921  HIT:     281317  MISS:        604
LLC WRITEBACK ACCESS:     142212  HIT:     142154  MISS:         58
LLC PREFETCH  REQUESTED:          0  ISSUED:          0  USEFUL:        251  USELESS:        842
LLC AVERAGE MISS LATENCY: 210.177 cycles
CPU 0 L1I FDIP final stats

DRAM Statistics
 CHANNEL 0
 RQ ROW_BUFFER_HIT:       6720  ROW_BUFFER_MISS:      12910
 DBUS_CONGESTED:      13937
 WQ ROW_BUFFER_HIT:       1016  ROW_BUFFER_MISS:       9935  FULL:          0

 AVG_CONGESTED_CYCLE: 6

CPU 0 Branch Prediction Accuracy: 98.1093% MPKI: 3.4605 Average ROB Occupancy at Mispredict: 215.779
Branch type MPKI
BRANCH_DIRECT_JUMP: 0.36436
BRANCH_INDIRECT: 0.42432
BRANCH_CONDITIONAL: 1.18824
BRANCH_DIRECT_CALL: 0.77894
BRANCH_INDIRECT_CALL: 0.51938
BRANCH_RETURN: 0.18526

