
VirtualMemory physical capacity: 8589934592 num_ppages: 2097152
VirtualMemory page size: 4096 log2_page_size: 12
VirtualMemory initalizing ppage free list ... done
VirtualMemory shuffling ppage free list ... done

 (TAGE 463917)  (LOOP 1248)  (SC 58190)  (TOTAL 523355 bits 511 Kbits)  (TOTAL 523355 bits 511 Kbits) 
*** ChampSim Multicore Out-of-Order Simulator ***

Warmup Instructions: 50000000
Simulation Instructions: 50000000
Number of CPUs: 1
LLC sets: 2048
LLC ways: 16
Off-chip DRAM Size: 4096 MB Channels: 1 Width: 64-bit Data Rate: 3200 MT/s

CPU 0 runs /home/isaachywong/champsim-pt/ipc1_public/spec_gcc_001.champsimtrace.xz
CPU 0 Tage branch predictor
CPU 0 L1I FDIP
Basic BTB sets: 2048 ways: 4 indirect buffer size: 4096 RAS size: 32
Heartbeat CPU 0 instructions: 10000001 cycles: 2291136 heartbeat IPC: 4.36465 cumulative IPC: 4.36465 (Simulation time: 0 hr 3 min 56 sec) 
Heartbeat CPU 0 instructions: 20000001 cycles: 4590264 heartbeat IPC: 4.34947 cumulative IPC: 4.35705 (Simulation time: 0 hr 7 min 38 sec) 
Heartbeat CPU 0 instructions: 30000001 cycles: 6900839 heartbeat IPC: 4.32793 cumulative IPC: 4.3473 (Simulation time: 0 hr 11 min 13 sec) 
Heartbeat CPU 0 instructions: 40000000 cycles: 9198552 heartbeat IPC: 4.35215 cumulative IPC: 4.34851 (Simulation time: 0 hr 14 min 52 sec) 
Heartbeat CPU 0 instructions: 50000001 cycles: 11517895 heartbeat IPC: 4.31157 cumulative IPC: 4.34107 (Simulation time: 0 hr 18 min 42 sec) 

Warmup complete CPU 0 instructions: 50000001 cycles: 11517895 (Simulation time: 0 hr 18 min 42 sec) 

Heartbeat CPU 0 instructions: 60000000 cycles: 18540733 heartbeat IPC: 1.42393 cumulative IPC: 1.42393 (Simulation time: 0 hr 25 min 5 sec) 
Heartbeat CPU 0 instructions: 70000004 cycles: 25192576 heartbeat IPC: 1.50334 cumulative IPC: 1.46256 (Simulation time: 0 hr 31 min 34 sec) 
Heartbeat CPU 0 instructions: 80000002 cycles: 31660924 heartbeat IPC: 1.54599 cumulative IPC: 1.48935 (Simulation time: 0 hr 37 min 17 sec) 
Heartbeat CPU 0 instructions: 90000002 cycles: 38249076 heartbeat IPC: 1.51788 cumulative IPC: 1.49638 (Simulation time: 0 hr 43 min 4 sec) 
Heartbeat CPU 0 instructions: 100000000 cycles: 45219903 heartbeat IPC: 1.43455 cumulative IPC: 1.48359 (Simulation time: 0 hr 49 min 44 sec) 
Finished CPU 0 instructions: 50000004 cycles: 33702009 cumulative IPC: 1.48359 (Simulation time: 0 hr 49 min 44 sec) 

ChampSim completed all CPUs

Region of Interest Statistics

CPU 0 cumulative IPC: 1.48359 instructions: 50000004 cycles: 33702009
L1D TOTAL     ACCESS:   11723418  HIT:   10951479  MISS:     771939
L1D LOAD      ACCESS:    6614456  HIT:    5937463  MISS:     676993
L1D RFO       ACCESS:    5108962  HIT:    5014016  MISS:      94946
L1D PREFETCH  ACCESS:          0  HIT:          0  MISS:          0
L1D WRITEBACK ACCESS:          0  HIT:          0  MISS:          0
L1D PREFETCH  REQUESTED:          0  ISSUED:          0  USEFUL:          0  USELESS:          0
L1D AVERAGE MISS LATENCY: 24.4113 cycles
L1I TOTAL     ACCESS:   20969798  HIT:   20741643  MISS:     228155
L1I LOAD      ACCESS:    4798880  HIT:    4659100  MISS:     139780
L1I RFO       ACCESS:          0  HIT:          0  MISS:          0
L1I PREFETCH  ACCESS:   16170918  HIT:   16082543  MISS:      88375
L1I WRITEBACK ACCESS:          0  HIT:          0  MISS:          0
L1I PREFETCH  REQUESTED:   21671746  ISSUED:   21671592  USEFUL:      83627  USELESS:       4738
L1I AVERAGE MISS LATENCY: 15.6323 cycles
L2C TOTAL     ACCESS:    1236873  HIT:    1057360  MISS:     179513
L2C LOAD      ACCESS:     749769  HIT:     645600  MISS:     104169
L2C RFO       ACCESS:      94942  HIT:      45730  MISS:      49212
L2C PREFETCH  ACCESS:     155323  HIT:     129547  MISS:      25776
L2C WRITEBACK ACCESS:     236839  HIT:     236483  MISS:        356
L2C PREFETCH  REQUESTED:          0  ISSUED:          0  USEFUL:      10112  USELESS:      16563
L2C AVERAGE MISS LATENCY: 72.7837 cycles
LLC TOTAL     ACCESS:     259640  HIT:     207169  MISS:      52471
LLC LOAD      ACCESS:     104168  HIT:      88534  MISS:      15634
LLC RFO       ACCESS:      49212  HIT:      20287  MISS:      28925
LLC PREFETCH  ACCESS:      25776  HIT:      18369  MISS:       7407
LLC WRITEBACK ACCESS:      80484  HIT:      79979  MISS:        505
LLC PREFETCH  REQUESTED:          0  ISSUED:          0  USEFUL:       3010  USELESS:      11297
LLC AVERAGE MISS LATENCY: 180.716 cycles
CPU 0 L1I FDIP final stats

DRAM Statistics
 CHANNEL 0
 RQ ROW_BUFFER_HIT:      12385  ROW_BUFFER_MISS:      39580
 DBUS_CONGESTED:      24327
 WQ ROW_BUFFER_HIT:       3669  ROW_BUFFER_MISS:      16326  FULL:          0

 AVG_CONGESTED_CYCLE: 6

CPU 0 Branch Prediction Accuracy: 97.6463% MPKI: 5.53582 Average ROB Occupancy at Mispredict: 202.309
Branch type MPKI
BRANCH_DIRECT_JUMP: 0.09572
BRANCH_INDIRECT: 0.06746
BRANCH_CONDITIONAL: 5.08946
BRANCH_DIRECT_CALL: 0.19188
BRANCH_INDIRECT_CALL: 0.09094
BRANCH_RETURN: 0.00036

