
VirtualMemory physical capacity: 8589934592 num_ppages: 2097152
VirtualMemory page size: 4096 log2_page_size: 12
VirtualMemory initalizing ppage free list ... done
VirtualMemory shuffling ppage free list ... done

 (TOTAL 523355 bits 511 Kbits) 
*** ChampSim Multicore Out-of-Order Simulator ***

Warmup Instructions: 50000000
Simulation Instructions: 50000000
Number of CPUs: 1
LLC sets: 2048
LLC ways: 16
Off-chip DRAM Size: 4096 MB Channels: 1 Width: 64-bit Data Rate: 3200 MT/s

CPU 0 runs /home/isaachywong/champsim-pt/ipc1_public/client_008.champsimtrace.xz
CPU 0 Tage branch predictor
CPU 0 L1I FDIP
Basic BTB sets: 2048 ways: 4 indirect buffer size: 4096 RAS size: 32
Heartbeat CPU 0 instructions: 10000004 cycles: 2739559 heartbeat IPC: 3.65022 cumulative IPC: 3.65022 (Simulation time: 0 hr 8 min 7 sec) 
Heartbeat CPU 0 instructions: 20000004 cycles: 5534663 heartbeat IPC: 3.57768 cumulative IPC: 3.61359 (Simulation time: 0 hr 16 min 17 sec) 
Heartbeat CPU 0 instructions: 30000002 cycles: 8290299 heartbeat IPC: 3.62893 cumulative IPC: 3.61869 (Simulation time: 0 hr 24 min 15 sec) 
Heartbeat CPU 0 instructions: 40000004 cycles: 11121852 heartbeat IPC: 3.53163 cumulative IPC: 3.59652 (Simulation time: 0 hr 32 min 16 sec) 
Heartbeat CPU 0 instructions: 50000001 cycles: 13928993 heartbeat IPC: 3.56234 cumulative IPC: 3.58964 (Simulation time: 0 hr 40 min 30 sec) 

Warmup complete CPU 0 instructions: 50000001 cycles: 13928993 (Simulation time: 0 hr 40 min 30 sec) 

Heartbeat CPU 0 instructions: 60000003 cycles: 21077608 heartbeat IPC: 1.39887 cumulative IPC: 1.39887 (Simulation time: 0 hr 45 min 35 sec) 
Heartbeat CPU 0 instructions: 70000001 cycles: 27639364 heartbeat IPC: 1.52398 cumulative IPC: 1.45875 (Simulation time: 0 hr 50 min 32 sec) 
Heartbeat CPU 0 instructions: 80000002 cycles: 35284696 heartbeat IPC: 1.30799 cumulative IPC: 1.40478 (Simulation time: 0 hr 55 min 12 sec) 
Heartbeat CPU 0 instructions: 90000001 cycles: 41539359 heartbeat IPC: 1.59881 cumulative IPC: 1.44873 (Simulation time: 0 hr 59 min 43 sec) 
Heartbeat CPU 0 instructions: 100000002 cycles: 48596631 heartbeat IPC: 1.41698 cumulative IPC: 1.44227 (Simulation time: 1 hr 4 min 46 sec) 
Finished CPU 0 instructions: 50000001 cycles: 34667638 cumulative IPC: 1.44227 (Simulation time: 1 hr 4 min 46 sec) 

ChampSim completed all CPUs

Region of Interest Statistics

CPU 0 cumulative IPC: 1.44227 instructions: 50000001 cycles: 34667638
L1D TOTAL     ACCESS:   12356168  HIT:   11486791  MISS:     869377
L1D LOAD      ACCESS:    7614715  HIT:    6862436  MISS:     752279
L1D RFO       ACCESS:    4741453  HIT:    4624355  MISS:     117098
L1D PREFETCH  ACCESS:          0  HIT:          0  MISS:          0
L1D WRITEBACK ACCESS:          0  HIT:          0  MISS:          0
L1D PREFETCH  REQUESTED:          0  ISSUED:          0  USEFUL:          0  USELESS:          0
L1D AVERAGE MISS LATENCY: 42.6669 cycles
L1I TOTAL     ACCESS:   14098356  HIT:   13388414  MISS:     709942
L1I LOAD      ACCESS:    3477012  HIT:    3135611  MISS:     341401
L1I RFO       ACCESS:          0  HIT:          0  MISS:          0
L1I PREFETCH  ACCESS:   10621344  HIT:   10252803  MISS:     368541
L1I WRITEBACK ACCESS:          0  HIT:          0  MISS:          0
L1I PREFETCH  REQUESTED:   15188036  ISSUED:   15187949  USEFUL:     352161  USELESS:      16405
L1I AVERAGE MISS LATENCY: 9.38991 cycles
L2C TOTAL     ACCESS:    1747296  HIT:    1434100  MISS:     313196
L2C LOAD      ACCESS:     879515  HIT:     693338  MISS:     186177
L2C RFO       ACCESS:     117097  HIT:      14450  MISS:     102647
L2C PREFETCH  ACCESS:     582697  HIT:     558800  MISS:      23897
L2C WRITEBACK ACCESS:     167987  HIT:     167512  MISS:        475
L2C PREFETCH  REQUESTED:          0  ISSUED:          0  USEFUL:      12734  USELESS:      11978
L2C AVERAGE MISS LATENCY: 94.7076 cycles
LLC TOTAL     ACCESS:     441990  HIT:     297002  MISS:     144988
LLC LOAD      ACCESS:     186170  HIT:     141281  MISS:      44889
LLC RFO       ACCESS:     102647  HIT:       9477  MISS:      93170
LLC PREFETCH  ACCESS:      23897  HIT:      17171  MISS:       6726
LLC WRITEBACK ACCESS:     129276  HIT:     129073  MISS:        203
LLC PREFETCH  REQUESTED:          0  ISSUED:          0  USEFUL:       2126  USELESS:       5862
LLC AVERAGE MISS LATENCY: 161.442 cycles
CPU 0 L1I FDIP final stats

DRAM Statistics
 CHANNEL 0
 RQ ROW_BUFFER_HIT:      37776  ROW_BUFFER_MISS:     106988
 DBUS_CONGESTED:      83027
 WQ ROW_BUFFER_HIT:      25156  ROW_BUFFER_MISS:      60484  FULL:          0

 AVG_CONGESTED_CYCLE: 6

CPU 0 Branch Prediction Accuracy: 95.1174% MPKI: 11.3963 Average ROB Occupancy at Mispredict: 190.067
Branch type MPKI
BRANCH_DIRECT_JUMP: 0.0302
BRANCH_INDIRECT: 1.26656
BRANCH_CONDITIONAL: 7.29922
BRANCH_DIRECT_CALL: 0.0472
BRANCH_INDIRECT_CALL: 2.73406
BRANCH_RETURN: 0.01904

