
VirtualMemory physical capacity: 8589934592 num_ppages: 2097152
VirtualMemory page size: 4096 log2_page_size: 12
VirtualMemory initalizing ppage free list ... done
VirtualMemory shuffling ppage free list ... done

 (TOTAL 523355 bits 511 Kbits) 
*** ChampSim Multicore Out-of-Order Simulator ***

Warmup Instructions: 50000000
Simulation Instructions: 50000000
Number of CPUs: 1
LLC sets: 2048
LLC ways: 16
Off-chip DRAM Size: 4096 MB Channels: 1 Width: 64-bit Data Rate: 3200 MT/s

CPU 0 runs /home/isaachywong/champsim-pt/ipc1_public/server_012.champsimtrace.xz
CPU 0 Tage branch predictor
CPU 0 L1I FDIP
Basic BTB sets: 2048 ways: 4 indirect buffer size: 4096 RAS size: 32
Heartbeat CPU 0 instructions: 10000002 cycles: 2067376 heartbeat IPC: 4.83705 cumulative IPC: 4.83705 (Simulation time: 0 hr 6 min 18 sec) 
Heartbeat CPU 0 instructions: 20000000 cycles: 4135847 heartbeat IPC: 4.83449 cumulative IPC: 4.83577 (Simulation time: 0 hr 12 min 27 sec) 
Heartbeat CPU 0 instructions: 30000001 cycles: 6207148 heartbeat IPC: 4.82788 cumulative IPC: 4.83314 (Simulation time: 0 hr 18 min 24 sec) 
Heartbeat CPU 0 instructions: 40000003 cycles: 8283289 heartbeat IPC: 4.81663 cumulative IPC: 4.829 (Simulation time: 0 hr 24 min 27 sec) 
Heartbeat CPU 0 instructions: 50000004 cycles: 10352967 heartbeat IPC: 4.83167 cumulative IPC: 4.82953 (Simulation time: 0 hr 30 min 26 sec) 

Warmup complete CPU 0 instructions: 50000004 cycles: 10352967 (Simulation time: 0 hr 30 min 26 sec) 

Heartbeat CPU 0 instructions: 60000003 cycles: 16379553 heartbeat IPC: 1.65931 cumulative IPC: 1.65931 (Simulation time: 0 hr 35 min 51 sec) 
Heartbeat CPU 0 instructions: 70000001 cycles: 22474470 heartbeat IPC: 1.64071 cumulative IPC: 1.64996 (Simulation time: 0 hr 41 min 13 sec) 
Heartbeat CPU 0 instructions: 80000002 cycles: 28601750 heartbeat IPC: 1.63205 cumulative IPC: 1.64395 (Simulation time: 0 hr 46 min 39 sec) 
Heartbeat CPU 0 instructions: 90000004 cycles: 34897853 heartbeat IPC: 1.58828 cumulative IPC: 1.62967 (Simulation time: 0 hr 52 min 8 sec) 
Heartbeat CPU 0 instructions: 100000002 cycles: 41149982 heartbeat IPC: 1.59945 cumulative IPC: 1.62353 (Simulation time: 0 hr 57 min 35 sec) 
Finished CPU 0 instructions: 50000000 cycles: 30797016 cumulative IPC: 1.62353 (Simulation time: 0 hr 57 min 35 sec) 

ChampSim completed all CPUs

Region of Interest Statistics

CPU 0 cumulative IPC: 1.62353 instructions: 50000000 cycles: 30797016
L1D TOTAL     ACCESS:   10963721  HIT:   10327567  MISS:     636154
L1D LOAD      ACCESS:    6009046  HIT:    5462479  MISS:     546567
L1D RFO       ACCESS:    4954675  HIT:    4865088  MISS:      89587
L1D PREFETCH  ACCESS:          0  HIT:          0  MISS:          0
L1D WRITEBACK ACCESS:          0  HIT:          0  MISS:          0
L1D PREFETCH  REQUESTED:          0  ISSUED:          0  USEFUL:          0  USELESS:          0
L1D AVERAGE MISS LATENCY: 36.5811 cycles
L1I TOTAL     ACCESS:   14943735  HIT:   13624548  MISS:    1319187
L1I LOAD      ACCESS:    5156928  HIT:    4491894  MISS:     665034
L1I RFO       ACCESS:          0  HIT:          0  MISS:          0
L1I PREFETCH  ACCESS:    9786807  HIT:    9132654  MISS:     654153
L1I WRITEBACK ACCESS:          0  HIT:          0  MISS:          0
L1I PREFETCH  REQUESTED:   13557138  ISSUED:   13556911  USEFUL:     640010  USELESS:      14262
L1I AVERAGE MISS LATENCY: 11.4198 cycles
L2C TOTAL     ACCESS:    2209977  HIT:    1270514  MISS:     939463
L2C LOAD      ACCESS:     736560  HIT:     374533  MISS:     362027
L2C RFO       ACCESS:      89563  HIT:      33888  MISS:      55675
L2C PREFETCH  ACCESS:    1129167  HIT:     609759  MISS:     519408
L2C WRITEBACK ACCESS:     254687  HIT:     252334  MISS:       2353
L2C PREFETCH  REQUESTED:          0  ISSUED:          0  USEFUL:     176432  USELESS:     342139
L2C AVERAGE MISS LATENCY: 30.4523 cycles
LLC TOTAL     ACCESS:    1093431  HIT:    1027363  MISS:      66068
LLC LOAD      ACCESS:     362024  HIT:     310331  MISS:      51693
LLC RFO       ACCESS:      55670  HIT:      45438  MISS:      10232
LLC PREFETCH  ACCESS:     519408  HIT:     515302  MISS:       4106
LLC WRITEBACK ACCESS:     156329  HIT:     156292  MISS:         37
LLC PREFETCH  REQUESTED:          0  ISSUED:          0  USEFUL:       2444  USELESS:       2495
LLC AVERAGE MISS LATENCY: 149.312 cycles
CPU 0 L1I FDIP final stats

DRAM Statistics
 CHANNEL 0
 RQ ROW_BUFFER_HIT:       8930  ROW_BUFFER_MISS:      57099
 DBUS_CONGESTED:      32038
 WQ ROW_BUFFER_HIT:      10503  ROW_BUFFER_MISS:      37578  FULL:          0

 AVG_CONGESTED_CYCLE: 6

CPU 0 Branch Prediction Accuracy: 95.772% MPKI: 7.86296 Average ROB Occupancy at Mispredict: 162.218
Branch type MPKI
BRANCH_DIRECT_JUMP: 0.32512
BRANCH_INDIRECT: 0.29734
BRANCH_CONDITIONAL: 5.0754
BRANCH_DIRECT_CALL: 0.56254
BRANCH_INDIRECT_CALL: 0.13318
BRANCH_RETURN: 1.46938

