
VirtualMemory physical capacity: 8589934592 num_ppages: 2097152
VirtualMemory page size: 4096 log2_page_size: 12
VirtualMemory initalizing ppage free list ... done
VirtualMemory shuffling ppage free list ... done

 (TOTAL 523355 bits 511 Kbits) 
*** ChampSim Multicore Out-of-Order Simulator ***

Warmup Instructions: 50000000
Simulation Instructions: 50000000
Number of CPUs: 1
LLC sets: 2048
LLC ways: 16
Off-chip DRAM Size: 4096 MB Channels: 1 Width: 64-bit Data Rate: 3200 MT/s

CPU 0 runs /home/isaachywong/champsim-pt/ipc1_public/server_004.champsimtrace.xz
CPU 0 Tage branch predictor
CPU 0 L1I FDIP
Basic BTB sets: 2048 ways: 4 indirect buffer size: 4096 RAS size: 32
Heartbeat CPU 0 instructions: 10000002 cycles: 2095147 heartbeat IPC: 4.77294 cumulative IPC: 4.77294 (Simulation time: 0 hr 6 min 16 sec) 
Heartbeat CPU 0 instructions: 20000001 cycles: 4286373 heartbeat IPC: 4.56365 cumulative IPC: 4.66595 (Simulation time: 0 hr 12 min 22 sec) 
Heartbeat CPU 0 instructions: 30000000 cycles: 7585711 heartbeat IPC: 3.03091 cumulative IPC: 3.9548 (Simulation time: 0 hr 20 min 39 sec) 
Heartbeat CPU 0 instructions: 40000002 cycles: 9994736 heartbeat IPC: 4.15106 cumulative IPC: 4.00211 (Simulation time: 0 hr 27 min 12 sec) 
Heartbeat CPU 0 instructions: 50000004 cycles: 12089796 heartbeat IPC: 4.77313 cumulative IPC: 4.13572 (Simulation time: 0 hr 33 min 9 sec) 

Warmup complete CPU 0 instructions: 50000004 cycles: 12089796 (Simulation time: 0 hr 33 min 9 sec) 

Heartbeat CPU 0 instructions: 60000004 cycles: 19340572 heartbeat IPC: 1.37916 cumulative IPC: 1.37916 (Simulation time: 0 hr 39 min 6 sec) 
Heartbeat CPU 0 instructions: 70000003 cycles: 25992022 heartbeat IPC: 1.50343 cumulative IPC: 1.43862 (Simulation time: 0 hr 44 min 48 sec) 
Heartbeat CPU 0 instructions: 80000001 cycles: 42295800 heartbeat IPC: 0.613355 cumulative IPC: 0.99318 (Simulation time: 0 hr 52 min 20 sec) 
Heartbeat CPU 0 instructions: 90000001 cycles: 55912337 heartbeat IPC: 0.734401 cumulative IPC: 0.912772 (Simulation time: 0 hr 57 min 54 sec) 
Heartbeat CPU 0 instructions: 100000004 cycles: 62995002 heartbeat IPC: 1.4119 cumulative IPC: 0.982218 (Simulation time: 1 hr 3 min 37 sec) 
Finished CPU 0 instructions: 50000000 cycles: 50905206 cumulative IPC: 0.982218 (Simulation time: 1 hr 3 min 37 sec) 

ChampSim completed all CPUs

Region of Interest Statistics

CPU 0 cumulative IPC: 0.982218 instructions: 50000000 cycles: 50905206
L1D TOTAL     ACCESS:   12974112  HIT:   10982888  MISS:    1991224
L1D LOAD      ACCESS:    8280309  HIT:    6386492  MISS:    1893817
L1D RFO       ACCESS:    4693803  HIT:    4596396  MISS:      97407
L1D PREFETCH  ACCESS:          0  HIT:          0  MISS:          0
L1D WRITEBACK ACCESS:          0  HIT:          0  MISS:          0
L1D PREFETCH  REQUESTED:          0  ISSUED:          0  USEFUL:          0  USELESS:          0
L1D AVERAGE MISS LATENCY: 20.3646 cycles
L1I TOTAL     ACCESS:   14117642  HIT:   13077761  MISS:    1039881
L1I LOAD      ACCESS:    4322375  HIT:    3768756  MISS:     553619
L1I RFO       ACCESS:          0  HIT:          0  MISS:          0
L1I PREFETCH  ACCESS:    9795267  HIT:    9309005  MISS:     486262
L1I WRITEBACK ACCESS:          0  HIT:          0  MISS:          0
L1I PREFETCH  REQUESTED:   14783869  ISSUED:   14783461  USEFUL:     475190  USELESS:      11088
L1I AVERAGE MISS LATENCY: 13.4794 cycles
L2C TOTAL     ACCESS:    3246065  HIT:    2472456  MISS:     773609
L2C LOAD      ACCESS:    2063961  HIT:    1747633  MISS:     316328
L2C RFO       ACCESS:      97402  HIT:      43630  MISS:      53772
L2C PREFETCH  ACCESS:     869724  HIT:     467847  MISS:     401877
L2C WRITEBACK ACCESS:     214978  HIT:     213346  MISS:       1632
L2C PREFETCH  REQUESTED:          0  ISSUED:          0  USEFUL:     122083  USELESS:     279106
L2C AVERAGE MISS LATENCY: 40.4173 cycles
LLC TOTAL     ACCESS:     899753  HIT:     803353  MISS:      96400
LLC LOAD      ACCESS:     316327  HIT:     252612  MISS:      63715
LLC RFO       ACCESS:      53769  HIT:      38697  MISS:      15072
LLC PREFETCH  ACCESS:     401877  HIT:     384353  MISS:      17524
LLC WRITEBACK ACCESS:     127780  HIT:     127691  MISS:         89
LLC PREFETCH  REQUESTED:          0  ISSUED:          0  USEFUL:       8592  USELESS:       8856
LLC AVERAGE MISS LATENCY: 164.173 cycles
CPU 0 L1I FDIP final stats

DRAM Statistics
 CHANNEL 0
 RQ ROW_BUFFER_HIT:      14098  ROW_BUFFER_MISS:      82213
 DBUS_CONGESTED:      41314
 WQ ROW_BUFFER_HIT:      12421  ROW_BUFFER_MISS:      30491  FULL:          0

 AVG_CONGESTED_CYCLE: 6

CPU 0 Branch Prediction Accuracy: 95.2877% MPKI: 9.9673 Average ROB Occupancy at Mispredict: 163.719
Branch type MPKI
BRANCH_DIRECT_JUMP: 0.36388
BRANCH_INDIRECT: 0.43368
BRANCH_CONDITIONAL: 7.12606
BRANCH_DIRECT_CALL: 0.63928
BRANCH_INDIRECT_CALL: 0.46084
BRANCH_RETURN: 0.94356

