
VirtualMemory physical capacity: 8589934592 num_ppages: 2097152
VirtualMemory page size: 4096 log2_page_size: 12
VirtualMemory initalizing ppage free list ... done
VirtualMemory shuffling ppage free list ... done

 (TOTAL 523355 bits 511 Kbits) 
*** ChampSim Multicore Out-of-Order Simulator ***

Warmup Instructions: 50000000
Simulation Instructions: 50000000
Number of CPUs: 1
LLC sets: 2048
LLC ways: 16
Off-chip DRAM Size: 4096 MB Channels: 1 Width: 64-bit Data Rate: 3200 MT/s

CPU 0 runs /home/isaachywong/champsim-pt/ipc1_public/spec_gobmk_001.champsimtrace.xz
CPU 0 Tage branch predictor
CPU 0 L1I FDIP
Basic BTB sets: 2048 ways: 4 indirect buffer size: 4096 RAS size: 32
Heartbeat CPU 0 instructions: 10000002 cycles: 2144187 heartbeat IPC: 4.66377 cumulative IPC: 4.66377 (Simulation time: 0 hr 5 min 17 sec) 
Heartbeat CPU 0 instructions: 20000002 cycles: 4295480 heartbeat IPC: 4.64837 cumulative IPC: 4.65606 (Simulation time: 0 hr 10 min 45 sec) 
Heartbeat CPU 0 instructions: 30000000 cycles: 6465072 heartbeat IPC: 4.60916 cumulative IPC: 4.64032 (Simulation time: 0 hr 16 min 14 sec) 
Heartbeat CPU 0 instructions: 40000002 cycles: 8634374 heartbeat IPC: 4.60978 cumulative IPC: 4.63265 (Simulation time: 0 hr 21 min 29 sec) 
Heartbeat CPU 0 instructions: 50000003 cycles: 10786362 heartbeat IPC: 4.64687 cumulative IPC: 4.63548 (Simulation time: 0 hr 26 min 45 sec) 

Warmup complete CPU 0 instructions: 50000003 cycles: 10786362 (Simulation time: 0 hr 26 min 45 sec) 

Heartbeat CPU 0 instructions: 60000002 cycles: 19323450 heartbeat IPC: 1.17136 cumulative IPC: 1.17136 (Simulation time: 0 hr 30 min 12 sec) 
Heartbeat CPU 0 instructions: 70000003 cycles: 27563242 heartbeat IPC: 1.21362 cumulative IPC: 1.19212 (Simulation time: 0 hr 33 min 32 sec) 
Heartbeat CPU 0 instructions: 80000004 cycles: 35955545 heartbeat IPC: 1.19157 cumulative IPC: 1.19193 (Simulation time: 0 hr 36 min 53 sec) 
Heartbeat CPU 0 instructions: 90000001 cycles: 44006567 heartbeat IPC: 1.24208 cumulative IPC: 1.20409 (Simulation time: 0 hr 40 min 9 sec) 
Heartbeat CPU 0 instructions: 100000000 cycles: 52529794 heartbeat IPC: 1.17326 cumulative IPC: 1.19779 (Simulation time: 0 hr 43 min 29 sec) 
Finished CPU 0 instructions: 50000003 cycles: 41743441 cumulative IPC: 1.19779 (Simulation time: 0 hr 43 min 29 sec) 

ChampSim completed all CPUs

Region of Interest Statistics

CPU 0 cumulative IPC: 1.19779 instructions: 50000003 cycles: 41743441
L1D TOTAL     ACCESS:   10337827  HIT:   10101203  MISS:     236624
L1D LOAD      ACCESS:    6633812  HIT:    6492728  MISS:     141084
L1D RFO       ACCESS:    3704015  HIT:    3608475  MISS:      95540
L1D PREFETCH  ACCESS:          0  HIT:          0  MISS:          0
L1D WRITEBACK ACCESS:          0  HIT:          0  MISS:          0
L1D PREFETCH  REQUESTED:          0  ISSUED:          0  USEFUL:          0  USELESS:          0
L1D AVERAGE MISS LATENCY: 26.887 cycles
L1I TOTAL     ACCESS:   10404123  HIT:   10063665  MISS:     340458
L1I LOAD      ACCESS:    3053777  HIT:    2870541  MISS:     183236
L1I RFO       ACCESS:          0  HIT:          0  MISS:          0
L1I PREFETCH  ACCESS:    7350346  HIT:    7193124  MISS:     157222
L1I WRITEBACK ACCESS:          0  HIT:          0  MISS:          0
L1I PREFETCH  REQUESTED:    9895912  ISSUED:    9895912  USEFUL:     152462  USELESS:       4759
L1I AVERAGE MISS LATENCY: 7.13531 cycles
L2C TOTAL     ACCESS:     694253  HIT:     605367  MISS:      88886
L2C LOAD      ACCESS:     193437  HIT:     145320  MISS:      48117
L2C RFO       ACCESS:      95536  HIT:      63513  MISS:      32023
L2C PREFETCH  ACCESS:     288102  HIT:     279484  MISS:       8618
L2C WRITEBACK ACCESS:     117178  HIT:     117050  MISS:        128
L2C PREFETCH  REQUESTED:          0  ISSUED:          0  USEFUL:       5081  USELESS:       3660
L2C AVERAGE MISS LATENCY: 45.3558 cycles
LLC TOTAL     ACCESS:     130177  HIT:     115598  MISS:      14579
LLC LOAD      ACCESS:      48117  HIT:      35765  MISS:      12352
LLC RFO       ACCESS:      32023  HIT:      30207  MISS:       1816
LLC PREFETCH  ACCESS:       8618  HIT:       8259  MISS:        359
LLC WRITEBACK ACCESS:      41419  HIT:      41367  MISS:         52
LLC PREFETCH  REQUESTED:          0  ISSUED:          0  USEFUL:        288  USELESS:       1480
LLC AVERAGE MISS LATENCY: 154.765 cycles
CPU 0 L1I FDIP final stats

DRAM Statistics
 CHANNEL 0
 RQ ROW_BUFFER_HIT:        438  ROW_BUFFER_MISS:      14085
 DBUS_CONGESTED:       3673
 WQ ROW_BUFFER_HIT:        556  ROW_BUFFER_MISS:       7176  FULL:          0

 AVG_CONGESTED_CYCLE: 6

CPU 0 Branch Prediction Accuracy: 90.5889% MPKI: 17.5127 Average ROB Occupancy at Mispredict: 111.789
Branch type MPKI
BRANCH_DIRECT_JUMP: 0.00372
BRANCH_INDIRECT: 0
BRANCH_CONDITIONAL: 17.4276
BRANCH_DIRECT_CALL: 0.00654
BRANCH_INDIRECT_CALL: 0.0732
BRANCH_RETURN: 0.00156

