
VirtualMemory physical capacity: 8589934592 num_ppages: 2097152
VirtualMemory page size: 4096 log2_page_size: 12
VirtualMemory initalizing ppage free list ... done
VirtualMemory shuffling ppage free list ... done

 (TOTAL 523355 bits 511 Kbits) 
*** ChampSim Multicore Out-of-Order Simulator ***

Warmup Instructions: 50000000
Simulation Instructions: 50000000
Number of CPUs: 1
LLC sets: 2048
LLC ways: 16
Off-chip DRAM Size: 4096 MB Channels: 1 Width: 64-bit Data Rate: 3200 MT/s

CPU 0 runs /home/isaachywong/champsim-pt/ipc1_public/server_023.champsimtrace.xz
CPU 0 Tage branch predictor
CPU 0 L1I FDIP
Basic BTB sets: 2048 ways: 4 indirect buffer size: 4096 RAS size: 32
Heartbeat CPU 0 instructions: 10000003 cycles: 2156076 heartbeat IPC: 4.63806 cumulative IPC: 4.63806 (Simulation time: 0 hr 5 min 19 sec) 
Heartbeat CPU 0 instructions: 20000000 cycles: 4313967 heartbeat IPC: 4.63415 cumulative IPC: 4.6361 (Simulation time: 0 hr 10 min 28 sec) 
Heartbeat CPU 0 instructions: 30000000 cycles: 6463274 heartbeat IPC: 4.65266 cumulative IPC: 4.64161 (Simulation time: 0 hr 15 min 33 sec) 
Heartbeat CPU 0 instructions: 40000002 cycles: 8619478 heartbeat IPC: 4.63778 cumulative IPC: 4.64065 (Simulation time: 0 hr 20 min 41 sec) 
Heartbeat CPU 0 instructions: 50000001 cycles: 10776629 heartbeat IPC: 4.63574 cumulative IPC: 4.63967 (Simulation time: 0 hr 25 min 51 sec) 

Warmup complete CPU 0 instructions: 50000001 cycles: 10776629 (Simulation time: 0 hr 25 min 51 sec) 

Heartbeat CPU 0 instructions: 60000003 cycles: 17322528 heartbeat IPC: 1.52767 cumulative IPC: 1.52767 (Simulation time: 0 hr 32 min 1 sec) 
Heartbeat CPU 0 instructions: 70000000 cycles: 24083786 heartbeat IPC: 1.47901 cumulative IPC: 1.50295 (Simulation time: 0 hr 38 min 12 sec) 
Heartbeat CPU 0 instructions: 80000000 cycles: 30597714 heartbeat IPC: 1.53517 cumulative IPC: 1.51354 (Simulation time: 0 hr 44 min 19 sec) 
Heartbeat CPU 0 instructions: 90000000 cycles: 36596561 heartbeat IPC: 1.66699 cumulative IPC: 1.54919 (Simulation time: 0 hr 50 min 1 sec) 
Heartbeat CPU 0 instructions: 100000001 cycles: 43205764 heartbeat IPC: 1.51304 cumulative IPC: 1.54182 (Simulation time: 0 hr 56 min 8 sec) 
Finished CPU 0 instructions: 50000000 cycles: 32429135 cumulative IPC: 1.54182 (Simulation time: 0 hr 56 min 8 sec) 

ChampSim completed all CPUs

Region of Interest Statistics

CPU 0 cumulative IPC: 1.54182 instructions: 50000000 cycles: 32429135
L1D TOTAL     ACCESS:   12820936  HIT:   11862236  MISS:     958700
L1D LOAD      ACCESS:    6810811  HIT:    6118623  MISS:     692188
L1D RFO       ACCESS:    6010125  HIT:    5743613  MISS:     266512
L1D PREFETCH  ACCESS:          0  HIT:          0  MISS:          0
L1D WRITEBACK ACCESS:          0  HIT:          0  MISS:          0
L1D PREFETCH  REQUESTED:          0  ISSUED:          0  USEFUL:          0  USELESS:          0
L1D AVERAGE MISS LATENCY: 22.1748 cycles
L1I TOTAL     ACCESS:   16576959  HIT:   14123506  MISS:    2453453
L1I LOAD      ACCESS:    4948432  HIT:    3693775  MISS:    1254657
L1I RFO       ACCESS:          0  HIT:          0  MISS:          0
L1I PREFETCH  ACCESS:   11628527  HIT:   10429731  MISS:    1198796
L1I WRITEBACK ACCESS:          0  HIT:          0  MISS:          0
L1I PREFETCH  REQUESTED:   17145312  ISSUED:   17145218  USEFUL:    1161007  USELESS:      37842
L1I AVERAGE MISS LATENCY: 8.64632 cycles
L2C TOTAL     ACCESS:    3863300  HIT:    3382151  MISS:     481149
L2C LOAD      ACCESS:    1188664  HIT:    1008185  MISS:     180479
L2C RFO       ACCESS:     266370  HIT:     193662  MISS:      72708
L2C PREFETCH  ACCESS:    1956923  HIT:    1738279  MISS:     218644
L2C WRITEBACK ACCESS:     451343  HIT:     442025  MISS:       9318
L2C PREFETCH  REQUESTED:          0  ISSUED:          0  USEFUL:     115606  USELESS:     103013
L2C AVERAGE MISS LATENCY: 33.9329 cycles
LLC TOTAL     ACCESS:     583581  HIT:     550409  MISS:      33172
LLC LOAD      ACCESS:     180473  HIT:     168304  MISS:      12169
LLC RFO       ACCESS:      72700  HIT:      53835  MISS:      18865
LLC PREFETCH  ACCESS:     218644  HIT:     216616  MISS:       2028
LLC WRITEBACK ACCESS:     111764  HIT:     111654  MISS:        110
LLC PREFETCH  REQUESTED:          0  ISSUED:          0  USEFUL:        711  USELESS:       1240
LLC AVERAGE MISS LATENCY: 207.707 cycles
CPU 0 L1I FDIP final stats

DRAM Statistics
 CHANNEL 0
 RQ ROW_BUFFER_HIT:      10685  ROW_BUFFER_MISS:      22371
 DBUS_CONGESTED:      24766
 WQ ROW_BUFFER_HIT:       2120  ROW_BUFFER_MISS:      17748  FULL:          0

 AVG_CONGESTED_CYCLE: 6

CPU 0 Branch Prediction Accuracy: 96.3987% MPKI: 6.59168 Average ROB Occupancy at Mispredict: 170.416
Branch type MPKI
BRANCH_DIRECT_JUMP: 0.14824
BRANCH_INDIRECT: 0.41134
BRANCH_CONDITIONAL: 5.10292
BRANCH_DIRECT_CALL: 0.34392
BRANCH_INDIRECT_CALL: 0.42816
BRANCH_RETURN: 0.1571

