
VirtualMemory physical capacity: 8589934592 num_ppages: 2097152
VirtualMemory page size: 4096 log2_page_size: 12
VirtualMemory initalizing ppage free list ... done
VirtualMemory shuffling ppage free list ... done

 (TOTAL 523355 bits 511 Kbits) 
*** ChampSim Multicore Out-of-Order Simulator ***

Warmup Instructions: 50000000
Simulation Instructions: 50000000
Number of CPUs: 1
LLC sets: 2048
LLC ways: 16
Off-chip DRAM Size: 4096 MB Channels: 1 Width: 64-bit Data Rate: 3200 MT/s

CPU 0 runs /home/isaachywong/champsim-pt/ipc1_public/server_013.champsimtrace.xz
CPU 0 Tage branch predictor
CPU 0 L1I FDIP
Basic BTB sets: 2048 ways: 4 indirect buffer size: 4096 RAS size: 32
Heartbeat CPU 0 instructions: 10000004 cycles: 2081132 heartbeat IPC: 4.80508 cumulative IPC: 4.80508 (Simulation time: 0 hr 6 min 2 sec) 
Heartbeat CPU 0 instructions: 20000004 cycles: 4151062 heartbeat IPC: 4.83108 cumulative IPC: 4.81805 (Simulation time: 0 hr 11 min 57 sec) 
Heartbeat CPU 0 instructions: 30000002 cycles: 6221975 heartbeat IPC: 4.82879 cumulative IPC: 4.82162 (Simulation time: 0 hr 17 min 52 sec) 
Heartbeat CPU 0 instructions: 40000000 cycles: 8292880 heartbeat IPC: 4.82881 cumulative IPC: 4.82341 (Simulation time: 0 hr 23 min 44 sec) 
Heartbeat CPU 0 instructions: 50000002 cycles: 10358735 heartbeat IPC: 4.84061 cumulative IPC: 4.82684 (Simulation time: 0 hr 29 min 46 sec) 

Warmup complete CPU 0 instructions: 50000002 cycles: 10358735 (Simulation time: 0 hr 29 min 46 sec) 

Heartbeat CPU 0 instructions: 60000003 cycles: 16435466 heartbeat IPC: 1.64562 cumulative IPC: 1.64562 (Simulation time: 0 hr 35 min 35 sec) 
Heartbeat CPU 0 instructions: 70000003 cycles: 22628797 heartbeat IPC: 1.61464 cumulative IPC: 1.62998 (Simulation time: 0 hr 41 min 28 sec) 
Heartbeat CPU 0 instructions: 80000002 cycles: 28443305 heartbeat IPC: 1.71984 cumulative IPC: 1.65887 (Simulation time: 0 hr 47 min 8 sec) 
Heartbeat CPU 0 instructions: 90000001 cycles: 34437516 heartbeat IPC: 1.66828 cumulative IPC: 1.66121 (Simulation time: 0 hr 52 min 54 sec) 
Heartbeat CPU 0 instructions: 100000002 cycles: 40407667 heartbeat IPC: 1.675 cumulative IPC: 1.66395 (Simulation time: 0 hr 58 min 40 sec) 
Finished CPU 0 instructions: 50000000 cycles: 30048932 cumulative IPC: 1.66395 (Simulation time: 0 hr 58 min 40 sec) 

ChampSim completed all CPUs

Region of Interest Statistics

CPU 0 cumulative IPC: 1.66395 instructions: 50000000 cycles: 30048932
L1D TOTAL     ACCESS:   10864030  HIT:   10216928  MISS:     647102
L1D LOAD      ACCESS:    5943802  HIT:    5384019  MISS:     559783
L1D RFO       ACCESS:    4920228  HIT:    4832909  MISS:      87319
L1D PREFETCH  ACCESS:          0  HIT:          0  MISS:          0
L1D WRITEBACK ACCESS:          0  HIT:          0  MISS:          0
L1D PREFETCH  REQUESTED:          0  ISSUED:          0  USEFUL:          0  USELESS:          0
L1D AVERAGE MISS LATENCY: 38.279 cycles
L1I TOTAL     ACCESS:   15121561  HIT:   13744277  MISS:    1377284
L1I LOAD      ACCESS:    5149084  HIT:    4440447  MISS:     708637
L1I RFO       ACCESS:          0  HIT:          0  MISS:          0
L1I PREFETCH  ACCESS:    9972477  HIT:    9303830  MISS:     668647
L1I WRITEBACK ACCESS:          0  HIT:          0  MISS:          0
L1I PREFETCH  REQUESTED:   14003850  ISSUED:   14003773  USEFUL:     652671  USELESS:      16001
L1I AVERAGE MISS LATENCY: 11.5228 cycles
L2C TOTAL     ACCESS:    2280428  HIT:    1287215  MISS:     993213
L2C LOAD      ACCESS:     773199  HIT:     397724  MISS:     375475
L2C RFO       ACCESS:      87302  HIT:      35820  MISS:      51482
L2C PREFETCH  ACCESS:    1163836  HIT:     599962  MISS:     563874
L2C WRITEBACK ACCESS:     256091  HIT:     253709  MISS:       2382
L2C PREFETCH  REQUESTED:          0  ISSUED:          0  USEFUL:     177742  USELESS:     385613
L2C AVERAGE MISS LATENCY: 31.354 cycles
LLC TOTAL     ACCESS:    1144182  HIT:    1068946  MISS:      75236
LLC LOAD      ACCESS:     375469  HIT:     316139  MISS:      59330
LLC RFO       ACCESS:      51478  HIT:      40926  MISS:      10552
LLC PREFETCH  ACCESS:     563874  HIT:     558625  MISS:       5249
LLC WRITEBACK ACCESS:     153361  HIT:     153256  MISS:        105
LLC PREFETCH  REQUESTED:          0  ISSUED:          0  USEFUL:       3057  USELESS:       2708
LLC AVERAGE MISS LATENCY: 150.495 cycles
CPU 0 L1I FDIP final stats

DRAM Statistics
 CHANNEL 0
 RQ ROW_BUFFER_HIT:       9064  ROW_BUFFER_MISS:      66064
 DBUS_CONGESTED:      34067
 WQ ROW_BUFFER_HIT:      12686  ROW_BUFFER_MISS:      39846  FULL:          0

 AVG_CONGESTED_CYCLE: 6

CPU 0 Branch Prediction Accuracy: 96.583% MPKI: 6.3464 Average ROB Occupancy at Mispredict: 186.576
Branch type MPKI
BRANCH_DIRECT_JUMP: 0.16972
BRANCH_INDIRECT: 0.29844
BRANCH_CONDITIONAL: 3.96714
BRANCH_DIRECT_CALL: 0.3044
BRANCH_INDIRECT_CALL: 0.12584
BRANCH_RETURN: 1.48086

