
VirtualMemory physical capacity: 8589934592 num_ppages: 2097152
VirtualMemory page size: 4096 log2_page_size: 12
VirtualMemory initalizing ppage free list ... done
VirtualMemory shuffling ppage free list ... done

 (TAGE 463917)  (LOOP 1248)  (SC 58190)  (TOTAL 523355 bits 511 Kbits)  (TOTAL 523355 bits 511 Kbits) 
*** ChampSim Multicore Out-of-Order Simulator ***

Warmup Instructions: 50000000
Simulation Instructions: 50000000
Number of CPUs: 1
LLC sets: 2048
LLC ways: 16
Off-chip DRAM Size: 4096 MB Channels: 1 Width: 64-bit Data Rate: 3200 MT/s

CPU 0 runs /home/isaachywong/champsim-pt/ipc1_public/server_011.champsimtrace.xz
CPU 0 Tage branch predictor
CPU 0 L1I FDIP
Basic BTB sets: 2048 ways: 4 indirect buffer size: 4096 RAS size: 32
Heartbeat CPU 0 instructions: 10000001 cycles: 2091030 heartbeat IPC: 4.78233 cumulative IPC: 4.78233 (Simulation time: 0 hr 6 min 12 sec) 
Heartbeat CPU 0 instructions: 20000000 cycles: 4186183 heartbeat IPC: 4.77292 cumulative IPC: 4.77762 (Simulation time: 0 hr 12 min 11 sec) 
Heartbeat CPU 0 instructions: 30000001 cycles: 6318673 heartbeat IPC: 4.68935 cumulative IPC: 4.74783 (Simulation time: 0 hr 18 min 27 sec) 
Heartbeat CPU 0 instructions: 40000002 cycles: 8410134 heartbeat IPC: 4.78135 cumulative IPC: 4.75617 (Simulation time: 0 hr 24 min 31 sec) 
Heartbeat CPU 0 instructions: 50000000 cycles: 10507238 heartbeat IPC: 4.76848 cumulative IPC: 4.75862 (Simulation time: 0 hr 30 min 33 sec) 

Warmup complete CPU 0 instructions: 50000005 cycles: 10507239 (Simulation time: 0 hr 30 min 33 sec) 

Heartbeat CPU 0 instructions: 60000002 cycles: 16396583 heartbeat IPC: 1.69798 cumulative IPC: 1.69798 (Simulation time: 0 hr 37 min 17 sec) 
Heartbeat CPU 0 instructions: 70000001 cycles: 22994755 heartbeat IPC: 1.51557 cumulative IPC: 1.6016 (Simulation time: 0 hr 44 min 3 sec) 
Heartbeat CPU 0 instructions: 80000000 cycles: 30338887 heartbeat IPC: 1.36163 cumulative IPC: 1.51273 (Simulation time: 0 hr 48 min 42 sec) 
Heartbeat CPU 0 instructions: 90000002 cycles: 36377285 heartbeat IPC: 1.65607 cumulative IPC: 1.54619 (Simulation time: 0 hr 55 min 9 sec) 
Heartbeat CPU 0 instructions: 100000002 cycles: 42361347 heartbeat IPC: 1.67111 cumulative IPC: 1.56966 (Simulation time: 1 hr 1 min 39 sec) 
Finished CPU 0 instructions: 50000001 cycles: 31854109 cumulative IPC: 1.56966 (Simulation time: 1 hr 1 min 39 sec) 

ChampSim completed all CPUs

Region of Interest Statistics

CPU 0 cumulative IPC: 1.56966 instructions: 50000001 cycles: 31854109
L1D TOTAL     ACCESS:   10981270  HIT:   10348607  MISS:     632663
L1D LOAD      ACCESS:    6176651  HIT:    5633027  MISS:     543624
L1D RFO       ACCESS:    4804619  HIT:    4715580  MISS:      89039
L1D PREFETCH  ACCESS:          0  HIT:          0  MISS:          0
L1D WRITEBACK ACCESS:          0  HIT:          0  MISS:          0
L1D PREFETCH  REQUESTED:          0  ISSUED:          0  USEFUL:          0  USELESS:          0
L1D AVERAGE MISS LATENCY: 38.392 cycles
L1I TOTAL     ACCESS:   15789001  HIT:   14554834  MISS:    1234167
L1I LOAD      ACCESS:    4849321  HIT:    4229803  MISS:     619518
L1I RFO       ACCESS:          0  HIT:          0  MISS:          0
L1I PREFETCH  ACCESS:   10939680  HIT:   10325031  MISS:     614649
L1I WRITEBACK ACCESS:          0  HIT:          0  MISS:          0
L1I PREFETCH  REQUESTED:   15279299  ISSUED:   15278910  USEFUL:     577774  USELESS:      36928
L1I AVERAGE MISS LATENCY: 13.7658 cycles
L2C TOTAL     ACCESS:    2115673  HIT:    1265426  MISS:     850247
L2C LOAD      ACCESS:     792138  HIT:     463628  MISS:     328510
L2C RFO       ACCESS:      89001  HIT:      37332  MISS:      51669
L2C PREFETCH  ACCESS:     985616  HIT:     518038  MISS:     467578
L2C WRITEBACK ACCESS:     248918  HIT:     246428  MISS:       2490
L2C PREFETCH  REQUESTED:          0  ISSUED:          0  USEFUL:     169332  USELESS:     297906
L2C AVERAGE MISS LATENCY: 37.5057 cycles
LLC TOTAL     ACCESS:     988002  HIT:     892973  MISS:      95029
LLC LOAD      ACCESS:     328487  HIT:     268719  MISS:      59768
LLC RFO       ACCESS:      51663  HIT:      34505  MISS:      17158
LLC PREFETCH  ACCESS:     467578  HIT:     449562  MISS:      18016
LLC WRITEBACK ACCESS:     140274  HIT:     140187  MISS:         87
LLC PREFETCH  REQUESTED:          0  ISSUED:          0  USEFUL:       9533  USELESS:       8697
LLC AVERAGE MISS LATENCY: 157.134 cycles
CPU 0 L1I FDIP final stats

DRAM Statistics
 CHANNEL 0
 RQ ROW_BUFFER_HIT:      12087  ROW_BUFFER_MISS:      82846
 DBUS_CONGESTED:      43337
 WQ ROW_BUFFER_HIT:      13639  ROW_BUFFER_MISS:      38965  FULL:          0

 AVG_CONGESTED_CYCLE: 6

CPU 0 Branch Prediction Accuracy: 96.4632% MPKI: 6.64384 Average ROB Occupancy at Mispredict: 169.976
Branch type MPKI
BRANCH_DIRECT_JUMP: 0.39852
BRANCH_INDIRECT: 0.4927
BRANCH_CONDITIONAL: 3.05672
BRANCH_DIRECT_CALL: 0.66262
BRANCH_INDIRECT_CALL: 0.75052
BRANCH_RETURN: 1.28276

