
VirtualMemory physical capacity: 8589934592 num_ppages: 2097152
VirtualMemory page size: 4096 log2_page_size: 12
VirtualMemory initalizing ppage free list ... done
VirtualMemory shuffling ppage free list ... done

 (TOTAL 523355 bits 511 Kbits) 
*** ChampSim Multicore Out-of-Order Simulator ***

Warmup Instructions: 50000000
Simulation Instructions: 50000000
Number of CPUs: 1
LLC sets: 2048
LLC ways: 16
Off-chip DRAM Size: 4096 MB Channels: 1 Width: 64-bit Data Rate: 3200 MT/s

CPU 0 runs /home/isaachywong/champsim-pt/ipc1_public/server_025.champsimtrace.xz
CPU 0 Tage branch predictor
CPU 0 L1I FDIP
Basic BTB sets: 2048 ways: 4 indirect buffer size: 4096 RAS size: 32
Heartbeat CPU 0 instructions: 10000001 cycles: 2149475 heartbeat IPC: 4.6523 cumulative IPC: 4.6523 (Simulation time: 0 hr 5 min 37 sec) 
Heartbeat CPU 0 instructions: 20000000 cycles: 4307990 heartbeat IPC: 4.63281 cumulative IPC: 4.64254 (Simulation time: 0 hr 11 min 7 sec) 
Heartbeat CPU 0 instructions: 30000003 cycles: 6458298 heartbeat IPC: 4.6505 cumulative IPC: 4.64519 (Simulation time: 0 hr 16 min 33 sec) 
Heartbeat CPU 0 instructions: 40000004 cycles: 8617118 heartbeat IPC: 4.63216 cumulative IPC: 4.64192 (Simulation time: 0 hr 22 min 2 sec) 
Heartbeat CPU 0 instructions: 50000003 cycles: 10770497 heartbeat IPC: 4.64386 cumulative IPC: 4.64231 (Simulation time: 0 hr 27 min 31 sec) 

Warmup complete CPU 0 instructions: 50000003 cycles: 10770497 (Simulation time: 0 hr 27 min 31 sec) 

Heartbeat CPU 0 instructions: 60000001 cycles: 17581215 heartbeat IPC: 1.46827 cumulative IPC: 1.46827 (Simulation time: 0 hr 33 min 34 sec) 
Heartbeat CPU 0 instructions: 70000001 cycles: 24503269 heartbeat IPC: 1.44466 cumulative IPC: 1.45637 (Simulation time: 0 hr 39 min 49 sec) 
Heartbeat CPU 0 instructions: 80000000 cycles: 31339358 heartbeat IPC: 1.46282 cumulative IPC: 1.45852 (Simulation time: 0 hr 45 min 57 sec) 
Heartbeat CPU 0 instructions: 90000003 cycles: 37934028 heartbeat IPC: 1.51638 cumulative IPC: 1.47256 (Simulation time: 0 hr 51 min 29 sec) 
Heartbeat CPU 0 instructions: 100000003 cycles: 44378482 heartbeat IPC: 1.55172 cumulative IPC: 1.48774 (Simulation time: 0 hr 56 min 26 sec) 
Finished CPU 0 instructions: 50000000 cycles: 33607985 cumulative IPC: 1.48774 (Simulation time: 0 hr 56 min 26 sec) 

ChampSim completed all CPUs

Region of Interest Statistics

CPU 0 cumulative IPC: 1.48774 instructions: 50000000 cycles: 33607985
L1D TOTAL     ACCESS:   13449933  HIT:   12549243  MISS:     900690
L1D LOAD      ACCESS:    7029136  HIT:    6377697  MISS:     651439
L1D RFO       ACCESS:    6420797  HIT:    6171546  MISS:     249251
L1D PREFETCH  ACCESS:          0  HIT:          0  MISS:          0
L1D WRITEBACK ACCESS:          0  HIT:          0  MISS:          0
L1D PREFETCH  REQUESTED:          0  ISSUED:          0  USEFUL:          0  USELESS:          0
L1D AVERAGE MISS LATENCY: 19.4801 cycles
L1I TOTAL     ACCESS:   17130492  HIT:   14643203  MISS:    2487289
L1I LOAD      ACCESS:    5417347  HIT:    4189790  MISS:    1227557
L1I RFO       ACCESS:          0  HIT:          0  MISS:          0
L1I PREFETCH  ACCESS:   11713145  HIT:   10453413  MISS:    1259732
L1I WRITEBACK ACCESS:          0  HIT:          0  MISS:          0
L1I PREFETCH  REQUESTED:   16915703  ISSUED:   16915664  USEFUL:    1217799  USELESS:      41992
L1I AVERAGE MISS LATENCY: 8.63012 cycles
L2C TOTAL     ACCESS:    3837683  HIT:    3313594  MISS:     524089
L2C LOAD      ACCESS:    1109740  HIT:     940705  MISS:     169035
L2C RFO       ACCESS:     249171  HIT:     174198  MISS:      74973
L2C PREFETCH  ACCESS:    2028976  HIT:    1761061  MISS:     267915
L2C WRITEBACK ACCESS:     449796  HIT:     437630  MISS:      12166
L2C PREFETCH  REQUESTED:          0  ISSUED:          0  USEFUL:     110016  USELESS:     157724
L2C AVERAGE MISS LATENCY: 26.7181 cycles
LLC TOTAL     ACCESS:     632890  HIT:     613303  MISS:      19587
LLC LOAD      ACCESS:     169018  HIT:     161406  MISS:       7612
LLC RFO       ACCESS:      74972  HIT:      63785  MISS:      11187
LLC PREFETCH  ACCESS:     267915  HIT:     267204  MISS:        711
LLC WRITEBACK ACCESS:     120985  HIT:     120908  MISS:         77
LLC PREFETCH  REQUESTED:          0  ISSUED:          0  USEFUL:        209  USELESS:       1451
LLC AVERAGE MISS LATENCY: 192.182 cycles
CPU 0 L1I FDIP final stats

DRAM Statistics
 CHANNEL 0
 RQ ROW_BUFFER_HIT:       7001  ROW_BUFFER_MISS:      12505
 DBUS_CONGESTED:      12986
 WQ ROW_BUFFER_HIT:        963  ROW_BUFFER_MISS:       8949  FULL:          0

 AVG_CONGESTED_CYCLE: 6

CPU 0 Branch Prediction Accuracy: 95.8338% MPKI: 7.77508 Average ROB Occupancy at Mispredict: 172.3
Branch type MPKI
BRANCH_DIRECT_JUMP: 0.29854
BRANCH_INDIRECT: 0.35976
BRANCH_CONDITIONAL: 5.97694
BRANCH_DIRECT_CALL: 0.52814
BRANCH_INDIRECT_CALL: 0.44114
BRANCH_RETURN: 0.17056

