
VirtualMemory physical capacity: 8589934592 num_ppages: 2097152
VirtualMemory page size: 4096 log2_page_size: 12
VirtualMemory initalizing ppage free list ... done
VirtualMemory shuffling ppage free list ... done

 (TOTAL 523355 bits 511 Kbits) 
*** ChampSim Multicore Out-of-Order Simulator ***

Warmup Instructions: 50000000
Simulation Instructions: 50000000
Number of CPUs: 1
LLC sets: 2048
LLC ways: 16
Off-chip DRAM Size: 4096 MB Channels: 1 Width: 64-bit Data Rate: 3200 MT/s

CPU 0 runs /home/isaachywong/champsim-pt/ipc1_public/server_034.champsimtrace.xz
CPU 0 Tage branch predictor
CPU 0 L1I FDIP
Basic BTB sets: 2048 ways: 4 indirect buffer size: 4096 RAS size: 32
Heartbeat CPU 0 instructions: 10000003 cycles: 2134567 heartbeat IPC: 4.68479 cumulative IPC: 4.68479 (Simulation time: 0 hr 4 min 35 sec) 
Heartbeat CPU 0 instructions: 20000002 cycles: 4266979 heartbeat IPC: 4.68952 cumulative IPC: 4.68716 (Simulation time: 0 hr 9 min 6 sec) 
Heartbeat CPU 0 instructions: 30000002 cycles: 6401156 heartbeat IPC: 4.68565 cumulative IPC: 4.68665 (Simulation time: 0 hr 13 min 38 sec) 
Heartbeat CPU 0 instructions: 40000002 cycles: 8535582 heartbeat IPC: 4.6851 cumulative IPC: 4.68627 (Simulation time: 0 hr 18 min 9 sec) 
Heartbeat CPU 0 instructions: 50000002 cycles: 10670430 heartbeat IPC: 4.68417 cumulative IPC: 4.68585 (Simulation time: 0 hr 22 min 38 sec) 

Warmup complete CPU 0 instructions: 50000002 cycles: 10670430 (Simulation time: 0 hr 22 min 38 sec) 

Heartbeat CPU 0 instructions: 60000002 cycles: 16603391 heartbeat IPC: 1.6855 cumulative IPC: 1.6855 (Simulation time: 0 hr 28 min 37 sec) 
Heartbeat CPU 0 instructions: 70000004 cycles: 22716979 heartbeat IPC: 1.6357 cumulative IPC: 1.66023 (Simulation time: 0 hr 34 min 44 sec) 
Heartbeat CPU 0 instructions: 80000002 cycles: 28652673 heartbeat IPC: 1.68472 cumulative IPC: 1.66831 (Simulation time: 0 hr 40 min 43 sec) 
Heartbeat CPU 0 instructions: 90000002 cycles: 34590787 heartbeat IPC: 1.68404 cumulative IPC: 1.67222 (Simulation time: 0 hr 46 min 42 sec) 
Heartbeat CPU 0 instructions: 100000000 cycles: 40542094 heartbeat IPC: 1.6803 cumulative IPC: 1.67383 (Simulation time: 0 hr 52 min 40 sec) 
Finished CPU 0 instructions: 50000002 cycles: 29871665 cumulative IPC: 1.67383 (Simulation time: 0 hr 52 min 40 sec) 

ChampSim completed all CPUs

Region of Interest Statistics

CPU 0 cumulative IPC: 1.67383 instructions: 50000002 cycles: 29871665
L1D TOTAL     ACCESS:   12301166  HIT:   11694872  MISS:     606294
L1D LOAD      ACCESS:    6037960  HIT:    5516430  MISS:     521530
L1D RFO       ACCESS:    6263206  HIT:    6178442  MISS:      84764
L1D PREFETCH  ACCESS:          0  HIT:          0  MISS:          0
L1D WRITEBACK ACCESS:          0  HIT:          0  MISS:          0
L1D PREFETCH  REQUESTED:          0  ISSUED:          0  USEFUL:          0  USELESS:          0
L1D AVERAGE MISS LATENCY: 13.2593 cycles
L1I TOTAL     ACCESS:   18773875  HIT:   15401739  MISS:    3372136
L1I LOAD      ACCESS:    5982980  HIT:    4058177  MISS:    1924803
L1I RFO       ACCESS:          0  HIT:          0  MISS:          0
L1I PREFETCH  ACCESS:   12790895  HIT:   11343562  MISS:    1447333
L1I WRITEBACK ACCESS:          0  HIT:          0  MISS:          0
L1I PREFETCH  REQUESTED:   19121235  ISSUED:   19121224  USEFUL:    1408283  USELESS:      39076
L1I AVERAGE MISS LATENCY: 8.51547 cycles
L2C TOTAL     ACCESS:    4207642  HIT:    4148275  MISS:      59367
L2C LOAD      ACCESS:    1603858  HIT:    1566523  MISS:      37335
L2C RFO       ACCESS:      84756  HIT:      75187  MISS:       9569
L2C PREFETCH  ACCESS:    2289761  HIT:    2279007  MISS:      10754
L2C WRITEBACK ACCESS:     229267  HIT:     227558  MISS:       1709
L2C PREFETCH  REQUESTED:          0  ISSUED:          0  USEFUL:       6497  USELESS:       4143
L2C AVERAGE MISS LATENCY: 27.1634 cycles
LLC TOTAL     ACCESS:      85821  HIT:      81140  MISS:       4681
LLC LOAD      ACCESS:      37335  HIT:      34513  MISS:       2822
LLC RFO       ACCESS:       9569  HIT:       7811  MISS:       1758
LLC PREFETCH  ACCESS:      10754  HIT:      10657  MISS:         97
LLC WRITEBACK ACCESS:      28163  HIT:      28159  MISS:          4
LLC PREFETCH  REQUESTED:          0  ISSUED:          0  USEFUL:         90  USELESS:        181
LLC AVERAGE MISS LATENCY: 98.1506 cycles
CPU 0 L1I FDIP final stats

DRAM Statistics
 CHANNEL 0
 RQ ROW_BUFFER_HIT:       2606  ROW_BUFFER_MISS:       2071
 DBUS_CONGESTED:       1181
 WQ ROW_BUFFER_HIT:         46  ROW_BUFFER_MISS:        308  FULL:          0

 AVG_CONGESTED_CYCLE: 5

CPU 0 Branch Prediction Accuracy: 96.2859% MPKI: 7.2639 Average ROB Occupancy at Mispredict: 152.983
Branch type MPKI
BRANCH_DIRECT_JUMP: 0.0008
BRANCH_INDIRECT: 0.44418
BRANCH_CONDITIONAL: 5.94042
BRANCH_DIRECT_CALL: 0.02916
BRANCH_INDIRECT_CALL: 0.233
BRANCH_RETURN: 0.61634

