
VirtualMemory physical capacity: 8589934592 num_ppages: 2097152
VirtualMemory page size: 4096 log2_page_size: 12
VirtualMemory initalizing ppage free list ... done
VirtualMemory shuffling ppage free list ... done

 (TOTAL 523355 bits 511 Kbits) 
*** ChampSim Multicore Out-of-Order Simulator ***

Warmup Instructions: 50000000
Simulation Instructions: 50000000
Number of CPUs: 1
LLC sets: 2048
LLC ways: 16
Off-chip DRAM Size: 4096 MB Channels: 1 Width: 64-bit Data Rate: 3200 MT/s

CPU 0 runs /home/isaachywong/champsim-pt/ipc1_public/server_010.champsimtrace.xz
CPU 0 Tage branch predictor
CPU 0 L1I FDIP
Basic BTB sets: 2048 ways: 4 indirect buffer size: 4096 RAS size: 32
Heartbeat CPU 0 instructions: 10000004 cycles: 2068869 heartbeat IPC: 4.83356 cumulative IPC: 4.83356 (Simulation time: 0 hr 6 min 13 sec) 
Heartbeat CPU 0 instructions: 20000004 cycles: 4136709 heartbeat IPC: 4.83596 cumulative IPC: 4.83476 (Simulation time: 0 hr 12 min 17 sec) 
Heartbeat CPU 0 instructions: 30000001 cycles: 6207578 heartbeat IPC: 4.82889 cumulative IPC: 4.8328 (Simulation time: 0 hr 18 min 15 sec) 
Heartbeat CPU 0 instructions: 40000003 cycles: 8274403 heartbeat IPC: 4.83834 cumulative IPC: 4.83419 (Simulation time: 0 hr 24 min 16 sec) 
Heartbeat CPU 0 instructions: 50000004 cycles: 10344891 heartbeat IPC: 4.82978 cumulative IPC: 4.8333 (Simulation time: 0 hr 30 min 16 sec) 

Warmup complete CPU 0 instructions: 50000004 cycles: 10344891 (Simulation time: 0 hr 30 min 16 sec) 

Heartbeat CPU 0 instructions: 60000001 cycles: 16364919 heartbeat IPC: 1.66112 cumulative IPC: 1.66112 (Simulation time: 0 hr 35 min 47 sec) 
Heartbeat CPU 0 instructions: 70000000 cycles: 22384370 heartbeat IPC: 1.66128 cumulative IPC: 1.6612 (Simulation time: 0 hr 41 min 14 sec) 
Heartbeat CPU 0 instructions: 80000002 cycles: 28459660 heartbeat IPC: 1.64601 cumulative IPC: 1.65611 (Simulation time: 0 hr 46 min 43 sec) 
Heartbeat CPU 0 instructions: 90000000 cycles: 34368054 heartbeat IPC: 1.69251 cumulative IPC: 1.66506 (Simulation time: 0 hr 52 min 8 sec) 
Heartbeat CPU 0 instructions: 100000000 cycles: 50447008 heartbeat IPC: 0.621931 cumulative IPC: 1.24682 (Simulation time: 0 hr 59 min 36 sec) 
Finished CPU 0 instructions: 50000001 cycles: 40102118 cumulative IPC: 1.24682 (Simulation time: 0 hr 59 min 36 sec) 

ChampSim completed all CPUs

Region of Interest Statistics

CPU 0 cumulative IPC: 1.24682 instructions: 50000001 cycles: 40102118
L1D TOTAL     ACCESS:   12152793  HIT:   10544685  MISS:    1608108
L1D LOAD      ACCESS:    7428542  HIT:    5912213  MISS:    1516329
L1D RFO       ACCESS:    4724251  HIT:    4632472  MISS:      91779
L1D PREFETCH  ACCESS:          0  HIT:          0  MISS:          0
L1D WRITEBACK ACCESS:          0  HIT:          0  MISS:          0
L1D PREFETCH  REQUESTED:          0  ISSUED:          0  USEFUL:          0  USELESS:          0
L1D AVERAGE MISS LATENCY: 20.482 cycles
L1I TOTAL     ACCESS:   14360012  HIT:   13207862  MISS:    1152150
L1I LOAD      ACCESS:    4724452  HIT:    4141509  MISS:     582943
L1I RFO       ACCESS:          0  HIT:          0  MISS:          0
L1I PREFETCH  ACCESS:    9635560  HIT:    9066353  MISS:     569207
L1I WRITEBACK ACCESS:          0  HIT:          0  MISS:          0
L1I PREFETCH  REQUESTED:   14178051  ISSUED:   14178049  USEFUL:     558449  USELESS:      10801
L1I AVERAGE MISS LATENCY: 11.3282 cycles
L2C TOTAL     ACCESS:    2999523  HIT:    2168997  MISS:     830526
L2C LOAD      ACCESS:    1675733  HIT:    1361193  MISS:     314540
L2C RFO       ACCESS:      91771  HIT:      43778  MISS:      47993
L2C PREFETCH  ACCESS:     992719  HIT:     527317  MISS:     465402
L2C WRITEBACK ACCESS:     239300  HIT:     236709  MISS:       2591
L2C PREFETCH  REQUESTED:          0  ISSUED:          0  USEFUL:     160241  USELESS:     305100
L2C AVERAGE MISS LATENCY: 31.1418 cycles
LLC TOTAL     ACCESS:     962188  HIT:     901292  MISS:      60896
LLC LOAD      ACCESS:     314531  HIT:     267342  MISS:      47189
LLC RFO       ACCESS:      47992  HIT:      38441  MISS:       9551
LLC PREFETCH  ACCESS:     465402  HIT:     461313  MISS:       4089
LLC WRITEBACK ACCESS:     134263  HIT:     134196  MISS:         67
LLC PREFETCH  REQUESTED:          0  ISSUED:          0  USEFUL:       1987  USELESS:       2068
LLC AVERAGE MISS LATENCY: 152.78 cycles
CPU 0 L1I FDIP final stats

DRAM Statistics
 CHANNEL 0
 RQ ROW_BUFFER_HIT:       7430  ROW_BUFFER_MISS:      53398
 DBUS_CONGESTED:      30309
 WQ ROW_BUFFER_HIT:      10487  ROW_BUFFER_MISS:      34430  FULL:          0

 AVG_CONGESTED_CYCLE: 6

CPU 0 Branch Prediction Accuracy: 96.3661% MPKI: 7.29762 Average ROB Occupancy at Mispredict: 184.968
Branch type MPKI
BRANCH_DIRECT_JUMP: 0.21508
BRANCH_INDIRECT: 0.26728
BRANCH_CONDITIONAL: 5.01734
BRANCH_DIRECT_CALL: 0.37738
BRANCH_INDIRECT_CALL: 0.1179
BRANCH_RETURN: 1.30264

