
VirtualMemory physical capacity: 8589934592 num_ppages: 2097152
VirtualMemory page size: 4096 log2_page_size: 12
VirtualMemory initalizing ppage free list ... done
VirtualMemory shuffling ppage free list ... done

 (TAGE 463917)  (LOOP 1248)  (SC 58190)  (TOTAL 523355 bits 511 Kbits)  (TOTAL 523355 bits 511 Kbits) 
*** ChampSim Multicore Out-of-Order Simulator ***

Warmup Instructions: 50000000
Simulation Instructions: 50000000
Number of CPUs: 1
LLC sets: 2048
LLC ways: 16
Off-chip DRAM Size: 4096 MB Channels: 1 Width: 64-bit Data Rate: 3200 MT/s

CPU 0 runs /home/isaachywong/champsim-pt/ipc1_public/spec_gcc_002.champsimtrace.xz
CPU 0 Tage branch predictor
CPU 0 L1I FDIP
Basic BTB sets: 2048 ways: 4 indirect buffer size: 4096 RAS size: 32
Heartbeat CPU 0 instructions: 10000002 cycles: 3348149 heartbeat IPC: 2.98673 cumulative IPC: 2.98673 (Simulation time: 0 hr 11 min 45 sec) 
Heartbeat CPU 0 instructions: 20000001 cycles: 6880476 heartbeat IPC: 2.83099 cumulative IPC: 2.90678 (Simulation time: 0 hr 25 min 1 sec) 
Heartbeat CPU 0 instructions: 30000000 cycles: 10118102 heartbeat IPC: 3.08868 cumulative IPC: 2.96498 (Simulation time: 0 hr 35 min 26 sec) 
Heartbeat CPU 0 instructions: 40000000 cycles: 13628257 heartbeat IPC: 2.84888 cumulative IPC: 2.93508 (Simulation time: 0 hr 48 min 37 sec) 
Heartbeat CPU 0 instructions: 50000001 cycles: 17219786 heartbeat IPC: 2.78433 cumulative IPC: 2.90364 (Simulation time: 1 hr 2 min 2 sec) 

Warmup complete CPU 0 instructions: 50000001 cycles: 17219786 (Simulation time: 1 hr 2 min 2 sec) 

Heartbeat CPU 0 instructions: 60000001 cycles: 58638270 heartbeat IPC: 0.241438 cumulative IPC: 0.241438 (Simulation time: 1 hr 44 min 56 sec) 
Heartbeat CPU 0 instructions: 70000004 cycles: 98454411 heartbeat IPC: 0.251155 cumulative IPC: 0.2462 (Simulation time: 2 hr 25 min 43 sec) 
Heartbeat CPU 0 instructions: 80000002 cycles: 152801794 heartbeat IPC: 0.184001 cumulative IPC: 0.221268 (Simulation time: 3 hr 22 min 17 sec) 
Heartbeat CPU 0 instructions: 90000002 cycles: 202952216 heartbeat IPC: 0.1994 cumulative IPC: 0.215364 (Simulation time: 4 hr 14 min 33 sec) 
Heartbeat CPU 0 instructions: 100000000 cycles: 236191808 heartbeat IPC: 0.300846 cumulative IPC: 0.22834 (Simulation time: 4 hr 48 min 54 sec) 
Finished CPU 0 instructions: 50000003 cycles: 218972033 cumulative IPC: 0.22834 (Simulation time: 4 hr 48 min 54 sec) 

ChampSim completed all CPUs

Region of Interest Statistics

CPU 0 cumulative IPC: 0.22834 instructions: 50000003 cycles: 218972033
L1D TOTAL     ACCESS:   13416601  HIT:    8403119  MISS:    5013482
L1D LOAD      ACCESS:    5928774  HIT:    4516637  MISS:    1412137
L1D RFO       ACCESS:    7487827  HIT:    3886482  MISS:    3601345
L1D PREFETCH  ACCESS:          0  HIT:          0  MISS:          0
L1D WRITEBACK ACCESS:          0  HIT:          0  MISS:          0
L1D PREFETCH  REQUESTED:          0  ISSUED:          0  USEFUL:          0  USELESS:          0
L1D AVERAGE MISS LATENCY: 336.425 cycles
L1I TOTAL     ACCESS:   18850237  HIT:   18256846  MISS:     593391
L1I LOAD      ACCESS:    3486503  HIT:    3114895  MISS:     371608
L1I RFO       ACCESS:          0  HIT:          0  MISS:          0
L1I PREFETCH  ACCESS:   15363734  HIT:   15141951  MISS:     221783
L1I WRITEBACK ACCESS:          0  HIT:          0  MISS:          0
L1I PREFETCH  REQUESTED:   19895220  ISSUED:   19865634  USEFUL:     197652  USELESS:      24116
L1I AVERAGE MISS LATENCY: 38.7659 cycles
L2C TOTAL     ACCESS:    9307110  HIT:    4090956  MISS:    5216154
L2C LOAD      ACCESS:    1622377  HIT:     180109  MISS:    1442268
L2C RFO       ACCESS:    3601332  HIT:       6440  MISS:    3594892
L2C PREFETCH  ACCESS:     383120  HIT:     204575  MISS:     178545
L2C WRITEBACK ACCESS:    3700281  HIT:    3699832  MISS:        449
L2C PREFETCH  REQUESTED:          0  ISSUED:          0  USEFUL:      85912  USELESS:      92780
L2C AVERAGE MISS LATENCY: 320.631 cycles
LLC TOTAL     ACCESS:    8889521  HIT:    5935586  MISS:    2953935
LLC LOAD      ACCESS:    1442267  HIT:     997848  MISS:     444419
LLC RFO       ACCESS:    3594892  HIT:    1149663  MISS:    2445229
LLC PREFETCH  ACCESS:     178545  HIT:     114258  MISS:      64287
LLC WRITEBACK ACCESS:    3673817  HIT:    3673817  MISS:          0
LLC PREFETCH  REQUESTED:          0  ISSUED:          0  USEFUL:      25668  USELESS:      38779
LLC AVERAGE MISS LATENCY: 530.863 cycles
CPU 0 L1I FDIP final stats

DRAM Statistics
 CHANNEL 0
 RQ ROW_BUFFER_HIT:     469387  ROW_BUFFER_MISS:    2481679
 DBUS_CONGESTED:    4008848
 WQ ROW_BUFFER_HIT:     603500  ROW_BUFFER_MISS:    1991156  FULL:       1181

 AVG_CONGESTED_CYCLE: 6

CPU 0 Branch Prediction Accuracy: 99.6847% MPKI: 0.64774 Average ROB Occupancy at Mispredict: 248.824
Branch type MPKI
BRANCH_DIRECT_JUMP: 0.02162
BRANCH_INDIRECT: 0.19978
BRANCH_CONDITIONAL: 0.36504
BRANCH_DIRECT_CALL: 0.0162
BRANCH_INDIRECT_CALL: 0.04476
BRANCH_RETURN: 0.00034

