
VirtualMemory physical capacity: 8589934592 num_ppages: 2097152
VirtualMemory page size: 4096 log2_page_size: 12
VirtualMemory initalizing ppage free list ... done
VirtualMemory shuffling ppage free list ... done

 (TAGE 463917)  (LOOP 1248)  (SC 58190)  (TOTAL 523355 bits 511 Kbits)  (TOTAL 523355 bits 511 Kbits) 
*** ChampSim Multicore Out-of-Order Simulator ***

Warmup Instructions: 50000000
Simulation Instructions: 50000000
Number of CPUs: 1
LLC sets: 2048
LLC ways: 16
Off-chip DRAM Size: 4096 MB Channels: 1 Width: 64-bit Data Rate: 3200 MT/s

CPU 0 runs /home/isaachywong/champsim-pt/ipc1_public/spec_gobmk_001.champsimtrace.xz
CPU 0 Tage branch predictor
CPU 0 L1I FDIP
Basic BTB sets: 2048 ways: 4 indirect buffer size: 4096 RAS size: 32
Heartbeat CPU 0 instructions: 10000002 cycles: 2165059 heartbeat IPC: 4.61881 cumulative IPC: 4.61881 (Simulation time: 0 hr 4 min 24 sec) 
Heartbeat CPU 0 instructions: 20000004 cycles: 4336000 heartbeat IPC: 4.6063 cumulative IPC: 4.61255 (Simulation time: 0 hr 8 min 57 sec) 
Heartbeat CPU 0 instructions: 30000000 cycles: 6526398 heartbeat IPC: 4.56538 cumulative IPC: 4.59672 (Simulation time: 0 hr 13 min 26 sec) 
Heartbeat CPU 0 instructions: 40000000 cycles: 8718806 heartbeat IPC: 4.56119 cumulative IPC: 4.58778 (Simulation time: 0 hr 17 min 47 sec) 
Heartbeat CPU 0 instructions: 50000003 cycles: 10892564 heartbeat IPC: 4.60033 cumulative IPC: 4.59029 (Simulation time: 0 hr 22 min 8 sec) 

Warmup complete CPU 0 instructions: 50000003 cycles: 10892564 (Simulation time: 0 hr 22 min 8 sec) 

Heartbeat CPU 0 instructions: 60000002 cycles: 18078832 heartbeat IPC: 1.39154 cumulative IPC: 1.39154 (Simulation time: 0 hr 27 min 8 sec) 
Heartbeat CPU 0 instructions: 70000000 cycles: 24789780 heartbeat IPC: 1.4901 cumulative IPC: 1.43914 (Simulation time: 0 hr 31 min 50 sec) 
Heartbeat CPU 0 instructions: 80000004 cycles: 31930950 heartbeat IPC: 1.40033 cumulative IPC: 1.42596 (Simulation time: 0 hr 37 min 8 sec) 
Heartbeat CPU 0 instructions: 90000001 cycles: 38762108 heartbeat IPC: 1.46388 cumulative IPC: 1.43526 (Simulation time: 0 hr 43 min 0 sec) 
Heartbeat CPU 0 instructions: 100000000 cycles: 45985076 heartbeat IPC: 1.38447 cumulative IPC: 1.42481 (Simulation time: 0 hr 48 min 4 sec) 
Finished CPU 0 instructions: 50000002 cycles: 35092513 cumulative IPC: 1.42481 (Simulation time: 0 hr 48 min 4 sec) 

ChampSim completed all CPUs

Region of Interest Statistics

CPU 0 cumulative IPC: 1.42481 instructions: 50000002 cycles: 35092513
L1D TOTAL     ACCESS:    9894203  HIT:    9657567  MISS:     236636
L1D LOAD      ACCESS:    6205323  HIT:    6064189  MISS:     141134
L1D RFO       ACCESS:    3688880  HIT:    3593378  MISS:      95502
L1D PREFETCH  ACCESS:          0  HIT:          0  MISS:          0
L1D WRITEBACK ACCESS:          0  HIT:          0  MISS:          0
L1D PREFETCH  REQUESTED:          0  ISSUED:          0  USEFUL:          0  USELESS:          0
L1D AVERAGE MISS LATENCY: 26.8825 cycles
L1I TOTAL     ACCESS:   14135985  HIT:   13770063  MISS:     365922
L1I LOAD      ACCESS:    3460447  HIT:    3291902  MISS:     168545
L1I RFO       ACCESS:          0  HIT:          0  MISS:          0
L1I PREFETCH  ACCESS:   10675538  HIT:   10478161  MISS:     197377
L1I WRITEBACK ACCESS:          0  HIT:          0  MISS:          0
L1I PREFETCH  REQUESTED:   15306552  ISSUED:   15306546  USEFUL:     184904  USELESS:      12465
L1I AVERAGE MISS LATENCY: 8.3236 cycles
L2C TOTAL     ACCESS:     719734  HIT:     631207  MISS:      88527
L2C LOAD      ACCESS:     204681  HIT:     156446  MISS:      48235
L2C RFO       ACCESS:      95496  HIT:      63801  MISS:      31695
L2C PREFETCH  ACCESS:     302371  HIT:     293849  MISS:       8522
L2C WRITEBACK ACCESS:     117186  HIT:     117111  MISS:         75
L2C PREFETCH  REQUESTED:          0  ISSUED:          0  USEFUL:       4962  USELESS:       3708
L2C AVERAGE MISS LATENCY: 45.3394 cycles
LLC TOTAL     ACCESS:     129441  HIT:     114855  MISS:      14586
LLC LOAD      ACCESS:      48235  HIT:      35911  MISS:      12324
LLC RFO       ACCESS:      31695  HIT:      29847  MISS:       1848
LLC PREFETCH  ACCESS:       8522  HIT:       8166  MISS:        356
LLC WRITEBACK ACCESS:      40989  HIT:      40931  MISS:         58
LLC PREFETCH  REQUESTED:          0  ISSUED:          0  USEFUL:        254  USELESS:       1490
LLC AVERAGE MISS LATENCY: 153.894 cycles
CPU 0 L1I FDIP final stats

DRAM Statistics
 CHANNEL 0
 RQ ROW_BUFFER_HIT:        472  ROW_BUFFER_MISS:      14051
 DBUS_CONGESTED:       3635
 WQ ROW_BUFFER_HIT:        586  ROW_BUFFER_MISS:       7224  FULL:          0

 AVG_CONGESTED_CYCLE: 6

CPU 0 Branch Prediction Accuracy: 96.5966% MPKI: 6.33326 Average ROB Occupancy at Mispredict: 167.044
Branch type MPKI
BRANCH_DIRECT_JUMP: 0.0056
BRANCH_INDIRECT: 0
BRANCH_CONDITIONAL: 6.24566
BRANCH_DIRECT_CALL: 0.00724
BRANCH_INDIRECT_CALL: 0.0732
BRANCH_RETURN: 0.00156

