
VirtualMemory physical capacity: 8589934592 num_ppages: 2097152
VirtualMemory page size: 4096 log2_page_size: 12
VirtualMemory initalizing ppage free list ... done
VirtualMemory shuffling ppage free list ... done

 (TAGE 463917)  (LOOP 1248)  (SC 58190)  (TOTAL 523355 bits 511 Kbits)  (TOTAL 523355 bits 511 Kbits) 
*** ChampSim Multicore Out-of-Order Simulator ***

Warmup Instructions: 50000000
Simulation Instructions: 50000000
Number of CPUs: 1
LLC sets: 2048
LLC ways: 16
Off-chip DRAM Size: 4096 MB Channels: 1 Width: 64-bit Data Rate: 3200 MT/s

CPU 0 runs /home/isaachywong/champsim-pt/ipc1_public/spec_gobmk_002.champsimtrace.xz
CPU 0 Tage branch predictor
CPU 0 L1I FDIP
Basic BTB sets: 2048 ways: 4 indirect buffer size: 4096 RAS size: 32
Heartbeat CPU 0 instructions: 10000003 cycles: 2089054 heartbeat IPC: 4.78686 cumulative IPC: 4.78686 (Simulation time: 0 hr 4 min 16 sec) 
Heartbeat CPU 0 instructions: 20000003 cycles: 4221559 heartbeat IPC: 4.68932 cumulative IPC: 4.73759 (Simulation time: 0 hr 8 min 41 sec) 
Heartbeat CPU 0 instructions: 30000003 cycles: 6316699 heartbeat IPC: 4.77295 cumulative IPC: 4.74932 (Simulation time: 0 hr 13 min 6 sec) 
Heartbeat CPU 0 instructions: 40000004 cycles: 8366801 heartbeat IPC: 4.87781 cumulative IPC: 4.7808 (Simulation time: 0 hr 17 min 21 sec) 
Heartbeat CPU 0 instructions: 50000000 cycles: 10416758 heartbeat IPC: 4.87815 cumulative IPC: 4.79996 (Simulation time: 0 hr 21 min 30 sec) 

Warmup complete CPU 0 instructions: 50000005 cycles: 10416759 (Simulation time: 0 hr 21 min 30 sec) 

Heartbeat CPU 0 instructions: 60000001 cycles: 16409765 heartbeat IPC: 1.66861 cumulative IPC: 1.66861 (Simulation time: 0 hr 26 min 6 sec) 
Heartbeat CPU 0 instructions: 70000004 cycles: 22307463 heartbeat IPC: 1.69558 cumulative IPC: 1.68199 (Simulation time: 0 hr 30 min 46 sec) 
Heartbeat CPU 0 instructions: 80000002 cycles: 28096270 heartbeat IPC: 1.72747 cumulative IPC: 1.69688 (Simulation time: 0 hr 35 min 34 sec) 
Heartbeat CPU 0 instructions: 90000002 cycles: 33744076 heartbeat IPC: 1.7706 cumulative IPC: 1.71473 (Simulation time: 0 hr 39 min 43 sec) 
Heartbeat CPU 0 instructions: 100000004 cycles: 39984465 heartbeat IPC: 1.60246 cumulative IPC: 1.69103 (Simulation time: 0 hr 44 min 43 sec) 
Finished CPU 0 instructions: 50000000 cycles: 29567710 cumulative IPC: 1.69103 (Simulation time: 0 hr 44 min 43 sec) 

ChampSim completed all CPUs

Region of Interest Statistics

CPU 0 cumulative IPC: 1.69103 instructions: 50000000 cycles: 29567710
L1D TOTAL     ACCESS:    9987873  HIT:    9914737  MISS:      73136
L1D LOAD      ACCESS:    5603129  HIT:    5566192  MISS:      36937
L1D RFO       ACCESS:    4384744  HIT:    4348545  MISS:      36199
L1D PREFETCH  ACCESS:          0  HIT:          0  MISS:          0
L1D WRITEBACK ACCESS:          0  HIT:          0  MISS:          0
L1D PREFETCH  REQUESTED:          0  ISSUED:          0  USEFUL:          0  USELESS:          0
L1D AVERAGE MISS LATENCY: 55.8637 cycles
L1I TOTAL     ACCESS:   16435552  HIT:   15980355  MISS:     455197
L1I LOAD      ACCESS:    4744946  HIT:    4534091  MISS:     210855
L1I RFO       ACCESS:          0  HIT:          0  MISS:          0
L1I PREFETCH  ACCESS:   11690606  HIT:   11446264  MISS:     244342
L1I WRITEBACK ACCESS:          0  HIT:          0  MISS:          0
L1I PREFETCH  REQUESTED:   15682638  ISSUED:   15682618  USEFUL:     234802  USELESS:       9555
L1I AVERAGE MISS LATENCY: 8.08304 cycles
L2C TOTAL     ACCESS:     585608  HIT:     561617  MISS:      23991
L2C LOAD      ACCESS:     108603  HIT:      89349  MISS:      19254
L2C RFO       ACCESS:      36196  HIT:      33587  MISS:       2609
L2C PREFETCH  ACCESS:     383529  HIT:     381530  MISS:       1999
L2C WRITEBACK ACCESS:      57280  HIT:      57151  MISS:        129
L2C PREFETCH  REQUESTED:          0  ISSUED:          0  USEFUL:        949  USELESS:        697
L2C AVERAGE MISS LATENCY: 147.694 cycles
LLC TOTAL     ACCESS:      41753  HIT:      23287  MISS:      18466
LLC LOAD      ACCESS:      19252  HIT:       3304  MISS:      15948
LLC RFO       ACCESS:       2609  HIT:        989  MISS:       1620
LLC PREFETCH  ACCESS:       1999  HIT:       1198  MISS:        801
LLC WRITEBACK ACCESS:      17893  HIT:      17796  MISS:         97
LLC PREFETCH  REQUESTED:          0  ISSUED:          0  USEFUL:         42  USELESS:       2746
LLC AVERAGE MISS LATENCY: 166.041 cycles
CPU 0 L1I FDIP final stats

DRAM Statistics
 CHANNEL 0
 RQ ROW_BUFFER_HIT:        786  ROW_BUFFER_MISS:      17583
 DBUS_CONGESTED:       3598
 WQ ROW_BUFFER_HIT:        430  ROW_BUFFER_MISS:       7280  FULL:          0

 AVG_CONGESTED_CYCLE: 6

CPU 0 Branch Prediction Accuracy: 95.9258% MPKI: 6.95358 Average ROB Occupancy at Mispredict: 133.554
Branch type MPKI
BRANCH_DIRECT_JUMP: 0.01086
BRANCH_INDIRECT: 0.00028
BRANCH_CONDITIONAL: 6.9271
BRANCH_DIRECT_CALL: 0.00936
BRANCH_INDIRECT_CALL: 0.00032
BRANCH_RETURN: 0.00566

