
VirtualMemory physical capacity: 8589934592 num_ppages: 2097152
VirtualMemory page size: 4096 log2_page_size: 12
VirtualMemory initalizing ppage free list ... done
VirtualMemory shuffling ppage free list ... done

 (TAGE 463917)  (LOOP 1248)  (SC 58190)  (TOTAL 523355 bits 511 Kbits)  (TOTAL 523355 bits 511 Kbits) 
*** ChampSim Multicore Out-of-Order Simulator ***

Warmup Instructions: 50000000
Simulation Instructions: 50000000
Number of CPUs: 1
LLC sets: 2048
LLC ways: 16
Off-chip DRAM Size: 4096 MB Channels: 1 Width: 64-bit Data Rate: 3200 MT/s

CPU 0 runs /home/isaachywong/champsim-pt/ipc1_public/spec_gobmk_002.champsimtrace.xz
CPU 0 Tage branch predictor
CPU 0 L1I FDIP
Basic BTB sets: 2048 ways: 4 indirect buffer size: 4096 RAS size: 32
Heartbeat CPU 0 instructions: 10000003 cycles: 2089017 heartbeat IPC: 4.78694 cumulative IPC: 4.78694 (Simulation time: 0 hr 5 min 45 sec) 
Heartbeat CPU 0 instructions: 20000003 cycles: 4218944 heartbeat IPC: 4.695 cumulative IPC: 4.74052 (Simulation time: 0 hr 11 min 44 sec) 
Heartbeat CPU 0 instructions: 30000003 cycles: 6310756 heartbeat IPC: 4.78054 cumulative IPC: 4.75379 (Simulation time: 0 hr 17 min 47 sec) 
Heartbeat CPU 0 instructions: 40000004 cycles: 8356638 heartbeat IPC: 4.88787 cumulative IPC: 4.78661 (Simulation time: 0 hr 23 min 40 sec) 
Heartbeat CPU 0 instructions: 50000000 cycles: 10401859 heartbeat IPC: 4.88945 cumulative IPC: 4.80683 (Simulation time: 0 hr 29 min 24 sec) 

Warmup complete CPU 0 instructions: 50000005 cycles: 10401860 (Simulation time: 0 hr 29 min 24 sec) 

Heartbeat CPU 0 instructions: 60000001 cycles: 16649784 heartbeat IPC: 1.60053 cumulative IPC: 1.60053 (Simulation time: 0 hr 35 min 5 sec) 
Heartbeat CPU 0 instructions: 70000004 cycles: 22786618 heartbeat IPC: 1.62951 cumulative IPC: 1.61489 (Simulation time: 0 hr 40 min 50 sec) 
Heartbeat CPU 0 instructions: 80000000 cycles: 28836365 heartbeat IPC: 1.65296 cumulative IPC: 1.62738 (Simulation time: 0 hr 46 min 40 sec) 
Heartbeat CPU 0 instructions: 90000002 cycles: 34684936 heartbeat IPC: 1.70982 cumulative IPC: 1.64724 (Simulation time: 0 hr 51 min 47 sec) 
Heartbeat CPU 0 instructions: 100000004 cycles: 41134394 heartbeat IPC: 1.55052 cumulative IPC: 1.62694 (Simulation time: 0 hr 57 min 50 sec) 
Finished CPU 0 instructions: 50000000 cycles: 30732538 cumulative IPC: 1.62694 (Simulation time: 0 hr 57 min 50 sec) 

ChampSim completed all CPUs

Region of Interest Statistics

CPU 0 cumulative IPC: 1.62694 instructions: 50000000 cycles: 30732538
L1D TOTAL     ACCESS:   10101655  HIT:   10028519  MISS:      73136
L1D LOAD      ACCESS:    5714772  HIT:    5677840  MISS:      36932
L1D RFO       ACCESS:    4386883  HIT:    4350679  MISS:      36204
L1D PREFETCH  ACCESS:          0  HIT:          0  MISS:          0
L1D WRITEBACK ACCESS:          0  HIT:          0  MISS:          0
L1D PREFETCH  REQUESTED:          0  ISSUED:          0  USEFUL:          0  USELESS:          0
L1D AVERAGE MISS LATENCY: 55.806 cycles
L1I TOTAL     ACCESS:   15623066  HIT:   15165018  MISS:     458048
L1I LOAD      ACCESS:    4672188  HIT:    4463334  MISS:     208854
L1I RFO       ACCESS:          0  HIT:          0  MISS:          0
L1I PREFETCH  ACCESS:   10950878  HIT:   10701684  MISS:     249194
L1I WRITEBACK ACCESS:          0  HIT:          0  MISS:          0
L1I PREFETCH  REQUESTED:   14682641  ISSUED:   14682628  USEFUL:     239234  USELESS:       9974
L1I AVERAGE MISS LATENCY: 7.88715 cycles
L2C TOTAL     ACCESS:     588458  HIT:     564227  MISS:      24231
L2C LOAD      ACCESS:      97945  HIT:      78627  MISS:      19318
L2C RFO       ACCESS:      36201  HIT:      33501  MISS:       2700
L2C PREFETCH  ACCESS:     397032  HIT:     394950  MISS:       2082
L2C WRITEBACK ACCESS:      57280  HIT:      57149  MISS:        131
L2C PREFETCH  REQUESTED:          0  ISSUED:          0  USEFUL:        998  USELESS:        789
L2C AVERAGE MISS LATENCY: 146.027 cycles
LLC TOTAL     ACCESS:      42047  HIT:      23589  MISS:      18458
LLC LOAD      ACCESS:      19318  HIT:       3380  MISS:      15938
LLC RFO       ACCESS:       2700  HIT:       1092  MISS:       1608
LLC PREFETCH  ACCESS:       2082  HIT:       1285  MISS:        797
LLC WRITEBACK ACCESS:      17947  HIT:      17832  MISS:        115
LLC PREFETCH  REQUESTED:          0  ISSUED:          0  USEFUL:         64  USELESS:       2878
LLC AVERAGE MISS LATENCY: 165.585 cycles
CPU 0 L1I FDIP final stats

DRAM Statistics
 CHANNEL 0
 RQ ROW_BUFFER_HIT:        836  ROW_BUFFER_MISS:      17507
 DBUS_CONGESTED:       3562
 WQ ROW_BUFFER_HIT:        392  ROW_BUFFER_MISS:       7243  FULL:          0

 AVG_CONGESTED_CYCLE: 6

CPU 0 Branch Prediction Accuracy: 95.1312% MPKI: 8.30976 Average ROB Occupancy at Mispredict: 123.868
Branch type MPKI
BRANCH_DIRECT_JUMP: 0.01044
BRANCH_INDIRECT: 0.00028
BRANCH_CONDITIONAL: 8.28168
BRANCH_DIRECT_CALL: 0.01138
BRANCH_INDIRECT_CALL: 0.00032
BRANCH_RETURN: 0.00566

