
VirtualMemory physical capacity: 8589934592 num_ppages: 2097152
VirtualMemory page size: 4096 log2_page_size: 12
VirtualMemory initalizing ppage free list ... done
VirtualMemory shuffling ppage free list ... done


*** ChampSim Multicore Out-of-Order Simulator ***

Warmup Instructions: 50000000
Simulation Instructions: 50000000
Number of CPUs: 1
LLC sets: 2048
LLC ways: 16
Off-chip DRAM Size: 4096 MB Channels: 1 Width: 64-bit Data Rate: 3200 MT/s

CPU 0 runs ipc1_public/server_020.champsimtrace.xz
CPU 0 Tage branch predictor
Basic BTB sets: 2048 ways: 4 indirect buffer size: 4096 RAS size: 64
Heartbeat CPU 0 instructions: 10000001 cycles: 2476379 heartbeat IPC: 4.03815 cumulative IPC: 4.03815 (Simulation time: 0 hr 4 min 56 sec) 
Heartbeat CPU 0 instructions: 20000002 cycles: 4947709 heartbeat IPC: 4.0464 cumulative IPC: 4.04228 (Simulation time: 0 hr 9 min 47 sec) 
Heartbeat CPU 0 instructions: 30000002 cycles: 7423976 heartbeat IPC: 4.03834 cumulative IPC: 4.04096 (Simulation time: 0 hr 14 min 41 sec) 
Heartbeat CPU 0 instructions: 40000002 cycles: 9900640 heartbeat IPC: 4.03769 cumulative IPC: 4.04014 (Simulation time: 0 hr 19 min 37 sec) 
Heartbeat CPU 0 instructions: 50000001 cycles: 12370902 heartbeat IPC: 4.04815 cumulative IPC: 4.04174 (Simulation time: 0 hr 24 min 28 sec) 

Warmup complete CPU 0 instructions: 50000001 cycles: 12370902 (Simulation time: 0 hr 24 min 28 sec) 

Heartbeat CPU 0 instructions: 60000003 cycles: 36128943 heartbeat IPC: 0.42091 cumulative IPC: 0.42091 (Simulation time: 0 hr 39 min 38 sec) 
Heartbeat CPU 0 instructions: 70000000 cycles: 59772769 heartbeat IPC: 0.422943 cumulative IPC: 0.421924 (Simulation time: 0 hr 54 min 43 sec) 
Heartbeat CPU 0 instructions: 80000001 cycles: 83196844 heartbeat IPC: 0.426911 cumulative IPC: 0.423574 (Simulation time: 1 hr 9 min 43 sec) 
Heartbeat CPU 0 instructions: 90000001 cycles: 106774132 heartbeat IPC: 0.424137 cumulative IPC: 0.423714 (Simulation time: 1 hr 24 min 45 sec) 
Heartbeat CPU 0 instructions: 100000004 cycles: 130237516 heartbeat IPC: 0.426196 cumulative IPC: 0.424208 (Simulation time: 1 hr 39 min 43 sec) 
Finished CPU 0 instructions: 50000003 cycles: 117866614 cumulative IPC: 0.424208 (Simulation time: 1 hr 39 min 43 sec) 

ChampSim completed all CPUs

Region of Interest Statistics

CPU 0 cumulative IPC: 0.424208 instructions: 50000003 cycles: 117866614
L1D TOTAL     ACCESS:   13220433  HIT:   11427586  MISS:    1792847
L1D LOAD      ACCESS:    6802213  HIT:    5966067  MISS:     836146
L1D RFO       ACCESS:    6418220  HIT:    5461519  MISS:     956701
L1D PREFETCH  ACCESS:          0  HIT:          0  MISS:          0
L1D WRITEBACK ACCESS:          0  HIT:          0  MISS:          0
L1D PREFETCH  REQUESTED:          0  ISSUED:          0  USEFUL:          0  USELESS:          0
L1D AVERAGE MISS LATENCY: 232.601 cycles
L1I TOTAL     ACCESS:    4858662  HIT:    2456552  MISS:    2402110
L1I LOAD      ACCESS:    4858662  HIT:    2456552  MISS:    2402110
L1I RFO       ACCESS:          0  HIT:          0  MISS:          0
L1I PREFETCH  ACCESS:          0  HIT:          0  MISS:          0
L1I WRITEBACK ACCESS:          0  HIT:          0  MISS:          0
L1I PREFETCH  REQUESTED:          0  ISSUED:          0  USEFUL:          0  USELESS:          0
L1I AVERAGE MISS LATENCY: 14.0599 cycles
L2C TOTAL     ACCESS:    5344529  HIT:    3656976  MISS:    1687553
L2C LOAD      ACCESS:    3238245  HIT:    2479525  MISS:     758720
L2C RFO       ACCESS:     956699  HIT:      31336  MISS:     925363
L2C PREFETCH  ACCESS:          0  HIT:          0  MISS:          0
L2C WRITEBACK ACCESS:    1149585  HIT:    1146115  MISS:       3470
L2C PREFETCH  REQUESTED:          0  ISSUED:          0  USEFUL:          0  USELESS:          0
L2C AVERAGE MISS LATENCY: 239.644 cycles
LLC TOTAL     ACCESS:    2767835  HIT:    1550632  MISS:    1217203
LLC LOAD      ACCESS:     758711  HIT:     320911  MISS:     437800
LLC RFO       ACCESS:     925362  HIT:     147862  MISS:     777500
LLC PREFETCH  ACCESS:          0  HIT:          0  MISS:          0
LLC WRITEBACK ACCESS:    1083762  HIT:    1081859  MISS:       1903
LLC PREFETCH  REQUESTED:          0  ISSUED:          0  USEFUL:          0  USELESS:          0
LLC AVERAGE MISS LATENCY: 304.574 cycles

DRAM Statistics
 CHANNEL 0
 RQ ROW_BUFFER_HIT:     302216  ROW_BUFFER_MISS:     912797
 DBUS_CONGESTED:    1154303
 WQ ROW_BUFFER_HIT:     307879  ROW_BUFFER_MISS:     545519  FULL:          0

 AVG_CONGESTED_CYCLE: 6

CPU 0 Branch Prediction Accuracy: 97.7886% MPKI: 3.6578 Average ROB Occupancy at Mispredict: 251.372
Branch type MPKI
BRANCH_DIRECT_JUMP: 0.0021
BRANCH_INDIRECT: 0.00354
BRANCH_CONDITIONAL: 3.63962
BRANCH_DIRECT_CALL: 0.00298
BRANCH_INDIRECT_CALL: 0.0093
BRANCH_RETURN: 0.00026

