
VirtualMemory physical capacity: 8589934592 num_ppages: 2097152
VirtualMemory page size: 4096 log2_page_size: 12
VirtualMemory initalizing ppage free list ... done
VirtualMemory shuffling ppage free list ... done


*** ChampSim Multicore Out-of-Order Simulator ***

Warmup Instructions: 50000000
Simulation Instructions: 50000000
Number of CPUs: 1
LLC sets: 2048
LLC ways: 16
Off-chip DRAM Size: 4096 MB Channels: 1 Width: 64-bit Data Rate: 3200 MT/s

CPU 0 runs ipc1_public/spec_gcc_001.champsimtrace.xz
CPU 0 Tage branch predictor
Basic BTB sets: 2048 ways: 4 indirect buffer size: 4096 RAS size: 64
Heartbeat CPU 0 instructions: 10000001 cycles: 2255139 heartbeat IPC: 4.43432 cumulative IPC: 4.43432 (Simulation time: 0 hr 2 min 4 sec) 
Heartbeat CPU 0 instructions: 20000001 cycles: 4521294 heartbeat IPC: 4.41276 cumulative IPC: 4.42351 (Simulation time: 0 hr 4 min 4 sec) 
Heartbeat CPU 0 instructions: 30000001 cycles: 6792122 heartbeat IPC: 4.40368 cumulative IPC: 4.41688 (Simulation time: 0 hr 6 min 2 sec) 
Heartbeat CPU 0 instructions: 40000000 cycles: 9060414 heartbeat IPC: 4.4086 cumulative IPC: 4.41481 (Simulation time: 0 hr 8 min 2 sec) 
Heartbeat CPU 0 instructions: 50000001 cycles: 11340123 heartbeat IPC: 4.38653 cumulative IPC: 4.40912 (Simulation time: 0 hr 10 min 6 sec) 

Warmup complete CPU 0 instructions: 50000001 cycles: 11340123 (Simulation time: 0 hr 10 min 6 sec) 

Heartbeat CPU 0 instructions: 60000000 cycles: 18991453 heartbeat IPC: 1.30696 cumulative IPC: 1.30696 (Simulation time: 0 hr 13 min 0 sec) 
Heartbeat CPU 0 instructions: 70000004 cycles: 26253232 heartbeat IPC: 1.37707 cumulative IPC: 1.3411 (Simulation time: 0 hr 15 min 54 sec) 
Heartbeat CPU 0 instructions: 80000002 cycles: 33332878 heartbeat IPC: 1.4125 cumulative IPC: 1.36409 (Simulation time: 0 hr 18 min 33 sec) 
Heartbeat CPU 0 instructions: 90000002 cycles: 40430477 heartbeat IPC: 1.40893 cumulative IPC: 1.37503 (Simulation time: 0 hr 21 min 19 sec) 
Heartbeat CPU 0 instructions: 100000000 cycles: 47921780 heartbeat IPC: 1.33488 cumulative IPC: 1.36681 (Simulation time: 0 hr 24 min 15 sec) 
Finished CPU 0 instructions: 50000004 cycles: 36581658 cumulative IPC: 1.36681 (Simulation time: 0 hr 24 min 15 sec) 

ChampSim completed all CPUs

Region of Interest Statistics

CPU 0 cumulative IPC: 1.36681 instructions: 50000004 cycles: 36581658
L1D TOTAL     ACCESS:   11941926  HIT:   11169958  MISS:     771968
L1D LOAD      ACCESS:    6822463  HIT:    6145640  MISS:     676823
L1D RFO       ACCESS:    5119463  HIT:    5024318  MISS:      95145
L1D PREFETCH  ACCESS:          0  HIT:          0  MISS:          0
L1D WRITEBACK ACCESS:          0  HIT:          0  MISS:          0
L1D PREFETCH  REQUESTED:          0  ISSUED:          0  USEFUL:          0  USELESS:          0
L1D AVERAGE MISS LATENCY: 24.6553 cycles
L1I TOTAL     ACCESS:    3630392  HIT:    3410255  MISS:     220137
L1I LOAD      ACCESS:    3630392  HIT:    3410255  MISS:     220137
L1I RFO       ACCESS:          0  HIT:          0  MISS:          0
L1I PREFETCH  ACCESS:          0  HIT:          0  MISS:          0
L1I WRITEBACK ACCESS:          0  HIT:          0  MISS:          0
L1I PREFETCH  REQUESTED:          0  ISSUED:          0  USEFUL:          0  USELESS:          0
L1I AVERAGE MISS LATENCY: 22.2825 cycles
L2C TOTAL     ACCESS:    1228882  HIT:    1061341  MISS:     167541
L2C LOAD      ACCESS:     896919  HIT:     777957  MISS:     118962
L2C RFO       ACCESS:      95142  HIT:      46857  MISS:      48285
L2C PREFETCH  ACCESS:          0  HIT:          0  MISS:          0
L2C WRITEBACK ACCESS:     236821  HIT:     236527  MISS:        294
L2C PREFETCH  REQUESTED:          0  ISSUED:          0  USEFUL:          0  USELESS:          0
L2C AVERAGE MISS LATENCY: 77.36 cycles
LLC TOTAL     ACCESS:     245379  HIT:     195400  MISS:      49979
LLC LOAD      ACCESS:     118961  HIT:      97806  MISS:      21155
LLC RFO       ACCESS:      48285  HIT:      19822  MISS:      28463
LLC PREFETCH  ACCESS:          0  HIT:          0  MISS:          0
LLC WRITEBACK ACCESS:      78133  HIT:      77772  MISS:        361
LLC PREFETCH  REQUESTED:          0  ISSUED:          0  USEFUL:          0  USELESS:          0
LLC AVERAGE MISS LATENCY: 192.399 cycles

DRAM Statistics
 CHANNEL 0
 RQ ROW_BUFFER_HIT:      11037  ROW_BUFFER_MISS:      38575
 DBUS_CONGESTED:      22823
 WQ ROW_BUFFER_HIT:       3820  ROW_BUFFER_MISS:      18049  FULL:          0

 AVG_CONGESTED_CYCLE: 6

CPU 0 Branch Prediction Accuracy: 93.2559% MPKI: 15.8616 Average ROB Occupancy at Mispredict: 172.045
Branch type MPKI
BRANCH_DIRECT_JUMP: 0.09314
BRANCH_INDIRECT: 0.06746
BRANCH_CONDITIONAL: 15.4229
BRANCH_DIRECT_CALL: 0.18708
BRANCH_INDIRECT_CALL: 0.09094
BRANCH_RETURN: 0

