
VirtualMemory physical capacity: 8589934592 num_ppages: 2097152
VirtualMemory page size: 4096 log2_page_size: 12
VirtualMemory initalizing ppage free list ... done
VirtualMemory shuffling ppage free list ... done

 (TAGE 463917)  (LOOP 1248)  (SC 58190)  (TOTAL 523355 bits 511 Kbits)  (TOTAL 523355 bits 511 Kbits) 
*** ChampSim Multicore Out-of-Order Simulator ***

Warmup Instructions: 50000000
Simulation Instructions: 50000000
Number of CPUs: 1
LLC sets: 2048
LLC ways: 16
Off-chip DRAM Size: 4096 MB Channels: 1 Width: 64-bit Data Rate: 3200 MT/s

CPU 0 runs /home/isaachywong/champsim-pt/ipc1_public/server_004.champsimtrace.xz
CPU 0 Tage branch predictor
CPU 0 L1I FDIP
Basic BTB sets: 2048 ways: 4 indirect buffer size: 4096 RAS size: 32
Comparison between count clear with upper bound and opt
Heartbeat CPU 0 instructions: 10000002 cycles: 2105939 heartbeat IPC: 4.74848 cumulative IPC: 4.74848 (Simulation time: 0 hr 6 min 7 sec) 
Heartbeat CPU 0 instructions: 20000001 cycles: 4305215 heartbeat IPC: 4.54695 cumulative IPC: 4.64553 (Simulation time: 0 hr 12 min 5 sec) 
Heartbeat CPU 0 instructions: 30000000 cycles: 7608187 heartbeat IPC: 3.02758 cumulative IPC: 3.94312 (Simulation time: 0 hr 20 min 9 sec) 
Heartbeat CPU 0 instructions: 40000000 cycles: 10026405 heartbeat IPC: 4.13528 cumulative IPC: 3.98947 (Simulation time: 0 hr 26 min 42 sec) 
Heartbeat CPU 0 instructions: 50000004 cycles: 12134105 heartbeat IPC: 4.74451 cumulative IPC: 4.12062 (Simulation time: 0 hr 32 min 41 sec) 

Warmup complete CPU 0 instructions: 50000004 cycles: 12134105 (Simulation time: 0 hr 32 min 41 sec) 

Heartbeat CPU 0 instructions: 60000004 cycles: 19011691 heartbeat IPC: 1.454 cumulative IPC: 1.454 (Simulation time: 0 hr 40 min 3 sec) 
Heartbeat CPU 0 instructions: 70000003 cycles: 25316370 heartbeat IPC: 1.58612 cumulative IPC: 1.51719 (Simulation time: 0 hr 47 min 7 sec) 
Heartbeat CPU 0 instructions: 80000001 cycles: 41452691 heartbeat IPC: 0.61972 cumulative IPC: 1.02324 (Simulation time: 1 hr 6 min 44 sec) 
Heartbeat CPU 0 instructions: 90000001 cycles: 54771617 heartbeat IPC: 0.750811 cumulative IPC: 0.938141 (Simulation time: 1 hr 18 min 25 sec) 
Heartbeat CPU 0 instructions: 100000004 cycles: 61415616 heartbeat IPC: 1.50512 cumulative IPC: 1.01458 (Simulation time: 1 hr 25 min 20 sec) 
Finished CPU 0 instructions: 50000000 cycles: 49281511 cumulative IPC: 1.01458 (Simulation time: 1 hr 25 min 20 sec) 

ChampSim completed all CPUs

Region of Interest Statistics

CPU 0 cumulative IPC: 1.01458 instructions: 50000000 cycles: 49281511
L1D TOTAL     ACCESS:   12827292  HIT:   10825168  MISS:    2002124
L1D LOAD      ACCESS:    8139139  HIT:    6233697  MISS:    1905442
L1D RFO       ACCESS:    4688153  HIT:    4591471  MISS:      96682
L1D PREFETCH  ACCESS:          0  HIT:          0  MISS:          0
L1D WRITEBACK ACCESS:          0  HIT:          0  MISS:          0
L1D PREFETCH  REQUESTED:          0  ISSUED:          0  USEFUL:          0  USELESS:          0
L1D AVERAGE MISS LATENCY: 20.3001 cycles
L1I TOTAL     ACCESS:   27002182  HIT:   25931758  MISS:    1070424
L1I LOAD      ACCESS:    5338137  HIT:    4792853  MISS:     545284
L1I RFO       ACCESS:          0  HIT:          0  MISS:          0
L1I PREFETCH  ACCESS:   21664045  HIT:   21138905  MISS:     525140
L1I WRITEBACK ACCESS:          0  HIT:          0  MISS:          0
L1I PREFETCH  REQUESTED:   29891069  ISSUED:   29890807  USEFUL:     495505  USELESS:      29698
L1I AVERAGE MISS LATENCY: 14.434 cycles
L2C TOTAL     ACCESS:    3287465  HIT:    2504083  MISS:     783382
L2C LOAD      ACCESS:    2121393  HIT:    1793151  MISS:     328242
L2C RFO       ACCESS:      96677  HIT:      43266  MISS:      53411
L2C PREFETCH  ACCESS:     854462  HIT:     454553  MISS:     399909
L2C WRITEBACK ACCESS:     214933  HIT:     213113  MISS:       1820
L2C PREFETCH  REQUESTED:          0  ISSUED:          0  USEFUL:     126133  USELESS:     273527
L2C AVERAGE MISS LATENCY: 40.1714 cycles
LLC TOTAL     ACCESS:     910820  HIT:     814767  MISS:      96053
LLC LOAD      ACCESS:     328238  HIT:     265923  MISS:      62315
LLC RFO       ACCESS:      53409  HIT:      38334  MISS:      15075
LLC PREFETCH  ACCESS:     399909  HIT:     381339  MISS:      18570
LLC WRITEBACK ACCESS:     129264  HIT:     129171  MISS:         93
LLC PREFETCH  REQUESTED:          0  ISSUED:          0  USEFUL:       9438  USELESS:       8950
LLC AVERAGE MISS LATENCY: 164.875 cycles
CPU 0 L1I FDIP final stats

DRAM Statistics
 CHANNEL 0
 RQ ROW_BUFFER_HIT:      14167  ROW_BUFFER_MISS:      81791
 DBUS_CONGESTED:      42054
 WQ ROW_BUFFER_HIT:      12526  ROW_BUFFER_MISS:      30571  FULL:          0

 AVG_CONGESTED_CYCLE: 6

CPU 0 Branch Prediction Accuracy: 97.2212% MPKI: 5.87774 Average ROB Occupancy at Mispredict: 155.001
Branch type MPKI
BRANCH_DIRECT_JUMP: 0.39834
BRANCH_INDIRECT: 0.43368
BRANCH_CONDITIONAL: 2.9003
BRANCH_DIRECT_CALL: 0.74102
BRANCH_INDIRECT_CALL: 0.46084
BRANCH_RETURN: 0.94356

Opt choices: 31232 Not opt choices: 163921 Should not evict: 57319
Rank counter: 
0 747
1 77413
2 47941
3 37820
Access pattern: 
BRANCH_NOT_BRANCH access again: 0 not access again: 0
BRANCH_DIRECT_JUMP access again: 11018 not access again: 25740
BRANCH_INDIRECT access again: 0 not access again: 0
BRANCH_CONDITIONAL access again: 45758 not access again: 102330
BRANCH_DIRECT_CALL access again: 18756 not access again: 48870
BRANCH_INDIRECT_CALL access again: 0 not access again: 0
BRANCH_RETURN access again: 0 not access again: 0
BRANCH_OTHER access again: 0 not access again: 0
