
VirtualMemory physical capacity: 8589934592 num_ppages: 2097152
VirtualMemory page size: 4096 log2_page_size: 12
VirtualMemory initalizing ppage free list ... done
VirtualMemory shuffling ppage free list ... done

 (TAGE 463917)  (LOOP 1248)  (SC 58190)  (TOTAL 523355 bits 511 Kbits)  (TOTAL 523355 bits 511 Kbits) 
*** ChampSim Multicore Out-of-Order Simulator ***

Warmup Instructions: 50000000
Simulation Instructions: 50000000
Number of CPUs: 1
LLC sets: 2048
LLC ways: 16
Off-chip DRAM Size: 4096 MB Channels: 1 Width: 64-bit Data Rate: 3200 MT/s

CPU 0 runs /home/isaachywong/champsim-pt/ipc1_public/server_012.champsimtrace.xz
CPU 0 Tage branch predictor
CPU 0 L1I FDIP
Basic BTB sets: 2048 ways: 4 indirect buffer size: 4096 RAS size: 32
Comparison between count clear with upper bound and opt
Heartbeat CPU 0 instructions: 10000002 cycles: 2074853 heartbeat IPC: 4.81962 cumulative IPC: 4.81962 (Simulation time: 0 hr 6 min 7 sec) 
Heartbeat CPU 0 instructions: 20000004 cycles: 4151186 heartbeat IPC: 4.81618 cumulative IPC: 4.8179 (Simulation time: 0 hr 12 min 2 sec) 
Heartbeat CPU 0 instructions: 30000001 cycles: 6230367 heartbeat IPC: 4.80958 cumulative IPC: 4.81513 (Simulation time: 0 hr 17 min 49 sec) 
Heartbeat CPU 0 instructions: 40000004 cycles: 8314429 heartbeat IPC: 4.79832 cumulative IPC: 4.81091 (Simulation time: 0 hr 23 min 42 sec) 
Heartbeat CPU 0 instructions: 50000004 cycles: 10392596 heartbeat IPC: 4.81193 cumulative IPC: 4.81112 (Simulation time: 0 hr 29 min 31 sec) 

Warmup complete CPU 0 instructions: 50000004 cycles: 10392596 (Simulation time: 0 hr 29 min 31 sec) 

Heartbeat CPU 0 instructions: 60000003 cycles: 15845948 heartbeat IPC: 1.83373 cumulative IPC: 1.83373 (Simulation time: 0 hr 36 min 29 sec) 
Heartbeat CPU 0 instructions: 70000001 cycles: 21349634 heartbeat IPC: 1.81696 cumulative IPC: 1.82531 (Simulation time: 0 hr 43 min 17 sec) 
Heartbeat CPU 0 instructions: 80000002 cycles: 26854417 heartbeat IPC: 1.8166 cumulative IPC: 1.8224 (Simulation time: 0 hr 50 min 14 sec) 
Heartbeat CPU 0 instructions: 90000004 cycles: 32571915 heartbeat IPC: 1.74902 cumulative IPC: 1.80348 (Simulation time: 0 hr 57 min 8 sec) 
Heartbeat CPU 0 instructions: 100000002 cycles: 38221589 heartbeat IPC: 1.77001 cumulative IPC: 1.79669 (Simulation time: 1 hr 4 min 5 sec) 
Finished CPU 0 instructions: 50000000 cycles: 27828994 cumulative IPC: 1.79669 (Simulation time: 1 hr 4 min 5 sec) 

ChampSim completed all CPUs

Region of Interest Statistics

CPU 0 cumulative IPC: 1.79669 instructions: 50000000 cycles: 27828994
L1D TOTAL     ACCESS:   10746481  HIT:   10110392  MISS:     636089
L1D LOAD      ACCESS:    5799042  HIT:    5251402  MISS:     547640
L1D RFO       ACCESS:    4947439  HIT:    4858990  MISS:      88449
L1D PREFETCH  ACCESS:          0  HIT:          0  MISS:          0
L1D WRITEBACK ACCESS:          0  HIT:          0  MISS:          0
L1D PREFETCH  REQUESTED:          0  ISSUED:          0  USEFUL:          0  USELESS:          0
L1D AVERAGE MISS LATENCY: 36.4665 cycles
L1I TOTAL     ACCESS:   17781379  HIT:   16412710  MISS:    1368669
L1I LOAD      ACCESS:    5541125  HIT:    4855218  MISS:     685907
L1I RFO       ACCESS:          0  HIT:          0  MISS:          0
L1I PREFETCH  ACCESS:   12240254  HIT:   11557492  MISS:     682762
L1I WRITEBACK ACCESS:          0  HIT:          0  MISS:          0
L1I PREFETCH  REQUESTED:   17062631  ISSUED:   17062289  USEFUL:     639555  USELESS:      43278
L1I AVERAGE MISS LATENCY: 12.3888 cycles
L2C TOTAL     ACCESS:    2259374  HIT:    1315185  MISS:     944189
L2C LOAD      ACCESS:     807143  HIT:     446146  MISS:     360997
L2C RFO       ACCESS:      88431  HIT:      35140  MISS:      53291
L2C PREFETCH  ACCESS:    1109128  HIT:     580822  MISS:     528306
L2C WRITEBACK ACCESS:     254672  HIT:     253077  MISS:       1595
L2C PREFETCH  REQUESTED:          0  ISSUED:          0  USEFUL:     186416  USELESS:     340950
L2C AVERAGE MISS LATENCY: 30.5612 cycles
LLC TOTAL     ACCESS:    1092301  HIT:    1025964  MISS:      66337
LLC LOAD      ACCESS:     360990  HIT:     309432  MISS:      51558
LLC RFO       ACCESS:      53291  HIT:      42993  MISS:      10298
LLC PREFETCH  ACCESS:     528306  HIT:     523947  MISS:       4359
LLC WRITEBACK ACCESS:     149714  HIT:     149592  MISS:        122
LLC PREFETCH  REQUESTED:          0  ISSUED:          0  USEFUL:       2742  USELESS:       2087
LLC AVERAGE MISS LATENCY: 150.762 cycles
CPU 0 L1I FDIP final stats

DRAM Statistics
 CHANNEL 0
 RQ ROW_BUFFER_HIT:       8481  ROW_BUFFER_MISS:      57731
 DBUS_CONGESTED:      33753
 WQ ROW_BUFFER_HIT:      11775  ROW_BUFFER_MISS:      37754  FULL:          0

 AVG_CONGESTED_CYCLE: 6

CPU 0 Branch Prediction Accuracy: 97.7992% MPKI: 4.093 Average ROB Occupancy at Mispredict: 210.034
Branch type MPKI
BRANCH_DIRECT_JUMP: 0.26646
BRANCH_INDIRECT: 0.29734
BRANCH_CONDITIONAL: 1.48442
BRANCH_DIRECT_CALL: 0.44222
BRANCH_INDIRECT_CALL: 0.13318
BRANCH_RETURN: 1.46938

Opt choices: 34719 Not opt choices: 63496 Should not evict: 82762
Rank counter: 
0 731
1 34346
2 17355
3 11064
Access pattern: 
BRANCH_NOT_BRANCH access again: 0 not access again: 0
BRANCH_DIRECT_JUMP access again: 5319 not access again: 20937
BRANCH_INDIRECT access again: 0 not access again: 0
BRANCH_CONDITIONAL access again: 26569 not access again: 84718
BRANCH_DIRECT_CALL access again: 8502 not access again: 34932
BRANCH_INDIRECT_CALL access again: 0 not access again: 0
BRANCH_RETURN access again: 0 not access again: 0
BRANCH_OTHER access again: 0 not access again: 0
