
VirtualMemory physical capacity: 8589934592 num_ppages: 2097152
VirtualMemory page size: 4096 log2_page_size: 12
VirtualMemory initalizing ppage free list ... done
VirtualMemory shuffling ppage free list ... done

 (TAGE 463917)  (LOOP 1248)  (SC 58190)  (TOTAL 523355 bits 511 Kbits)  (TOTAL 523355 bits 511 Kbits) 
*** ChampSim Multicore Out-of-Order Simulator ***

Warmup Instructions: 50000000
Simulation Instructions: 50000000
Number of CPUs: 1
LLC sets: 2048
LLC ways: 16
Off-chip DRAM Size: 4096 MB Channels: 1 Width: 64-bit Data Rate: 3200 MT/s

CPU 0 runs /home/isaachywong/champsim-pt/ipc1_public/server_003.champsimtrace.xz
CPU 0 Tage branch predictor
CPU 0 L1I FDIP
Basic BTB sets: 2048 ways: 4 indirect buffer size: 4096 RAS size: 32
Comparison between count clear with upper bound and opt
Heartbeat CPU 0 instructions: 10000001 cycles: 2095386 heartbeat IPC: 4.77239 cumulative IPC: 4.77239 (Simulation time: 0 hr 6 min 27 sec) 
Heartbeat CPU 0 instructions: 20000000 cycles: 4277623 heartbeat IPC: 4.58245 cumulative IPC: 4.67549 (Simulation time: 0 hr 12 min 42 sec) 
Heartbeat CPU 0 instructions: 30000001 cycles: 6358840 heartbeat IPC: 4.80488 cumulative IPC: 4.71784 (Simulation time: 0 hr 19 min 6 sec) 
Heartbeat CPU 0 instructions: 40000001 cycles: 8498203 heartbeat IPC: 4.67429 cumulative IPC: 4.70688 (Simulation time: 0 hr 25 min 3 sec) 
Heartbeat CPU 0 instructions: 50000004 cycles: 11186274 heartbeat IPC: 3.72014 cumulative IPC: 4.46976 (Simulation time: 0 hr 31 min 16 sec) 

Warmup complete CPU 0 instructions: 50000004 cycles: 11186274 (Simulation time: 0 hr 31 min 16 sec) 

Heartbeat CPU 0 instructions: 60000001 cycles: 19574757 heartbeat IPC: 1.19211 cumulative IPC: 1.19211 (Simulation time: 0 hr 36 min 8 sec) 
Heartbeat CPU 0 instructions: 70000003 cycles: 26668435 heartbeat IPC: 1.40971 cumulative IPC: 1.29181 (Simulation time: 0 hr 40 min 59 sec) 
Heartbeat CPU 0 instructions: 80000000 cycles: 34351748 heartbeat IPC: 1.30152 cumulative IPC: 1.29503 (Simulation time: 0 hr 47 min 17 sec) 
Heartbeat CPU 0 instructions: 90000000 cycles: 41862967 heartbeat IPC: 1.33134 cumulative IPC: 1.30392 (Simulation time: 0 hr 53 min 41 sec) 
Heartbeat CPU 0 instructions: 100000001 cycles: 49915338 heartbeat IPC: 1.24187 cumulative IPC: 1.29102 (Simulation time: 0 hr 59 min 52 sec) 
Finished CPU 0 instructions: 50000002 cycles: 38729065 cumulative IPC: 1.29102 (Simulation time: 0 hr 59 min 52 sec) 

ChampSim completed all CPUs

Region of Interest Statistics

CPU 0 cumulative IPC: 1.29102 instructions: 50000002 cycles: 38729065
L1D TOTAL     ACCESS:   11496349  HIT:   10768405  MISS:     727944
L1D LOAD      ACCESS:    6978235  HIT:    6375699  MISS:     602536
L1D RFO       ACCESS:    4518114  HIT:    4392706  MISS:     125408
L1D PREFETCH  ACCESS:          0  HIT:          0  MISS:          0
L1D WRITEBACK ACCESS:          0  HIT:          0  MISS:          0
L1D PREFETCH  REQUESTED:          0  ISSUED:          0  USEFUL:          0  USELESS:          0
L1D AVERAGE MISS LATENCY: 52.6868 cycles
L1I TOTAL     ACCESS:   14532925  HIT:   13645539  MISS:     887386
L1I LOAD      ACCESS:    4038507  HIT:    3562258  MISS:     476249
L1I RFO       ACCESS:          0  HIT:          0  MISS:          0
L1I PREFETCH  ACCESS:   10494418  HIT:   10083281  MISS:     411137
L1I WRITEBACK ACCESS:          0  HIT:          0  MISS:          0
L1I PREFETCH  REQUESTED:   14619594  ISSUED:   14619528  USEFUL:     390179  USELESS:      20980
L1I AVERAGE MISS LATENCY: 16.0657 cycles
L2C TOTAL     ACCESS:    1881959  HIT:    1149639  MISS:     732320
L2C LOAD      ACCESS:     790725  HIT:     453563  MISS:     337162
L2C RFO       ACCESS:     125386  HIT:      43175  MISS:      82211
L2C PREFETCH  ACCESS:     699165  HIT:     387351  MISS:     311814
L2C WRITEBACK ACCESS:     266683  HIT:     265550  MISS:       1133
L2C PREFETCH  REQUESTED:          0  ISSUED:          0  USEFUL:      93018  USELESS:     216685
L2C AVERAGE MISS LATENCY: 62.2688 cycles
LLC TOTAL     ACCESS:     886168  HIT:     730797  MISS:     155371
LLC LOAD      ACCESS:     337158  HIT:     262246  MISS:      74912
LLC RFO       ACCESS:      82210  HIT:      35771  MISS:      46439
LLC PREFETCH  ACCESS:     311814  HIT:     278331  MISS:      33483
LLC WRITEBACK ACCESS:     154986  HIT:     154449  MISS:        537
LLC PREFETCH  REQUESTED:          0  ISSUED:          0  USEFUL:      21832  USELESS:      13775
LLC AVERAGE MISS LATENCY: 199.365 cycles
CPU 0 L1I FDIP final stats

DRAM Statistics
 CHANNEL 0
 RQ ROW_BUFFER_HIT:      23440  ROW_BUFFER_MISS:     131381
 DBUS_CONGESTED:      91671
 WQ ROW_BUFFER_HIT:      20276  ROW_BUFFER_MISS:      62563  FULL:          0

 AVG_CONGESTED_CYCLE: 6

CPU 0 Branch Prediction Accuracy: 94.9056% MPKI: 10.0826 Average ROB Occupancy at Mispredict: 172.874
Branch type MPKI
BRANCH_DIRECT_JUMP: 0.4775
BRANCH_INDIRECT: 0.4595
BRANCH_CONDITIONAL: 5.05998
BRANCH_DIRECT_CALL: 0.97198
BRANCH_INDIRECT_CALL: 2.36688
BRANCH_RETURN: 0.74678

Opt choices: 26583 Not opt choices: 294607 Should not evict: 41872
Rank counter: 
0 802
1 129518
2 90717
3 73570
Access pattern: 
BRANCH_NOT_BRANCH access again: 0 not access again: 0
BRANCH_DIRECT_JUMP access again: 19187 not access again: 35376
BRANCH_INDIRECT access again: 0 not access again: 0
BRANCH_CONDITIONAL access again: 77728 not access again: 122246
BRANCH_DIRECT_CALL access again: 35691 not access again: 72834
BRANCH_INDIRECT_CALL access again: 0 not access again: 0
BRANCH_RETURN access again: 0 not access again: 0
BRANCH_OTHER access again: 0 not access again: 0
