
VirtualMemory physical capacity: 8589934592 num_ppages: 2097152
VirtualMemory page size: 4096 log2_page_size: 12
VirtualMemory initalizing ppage free list ... done
VirtualMemory shuffling ppage free list ... done

 (TOTAL 523355 bits 511 Kbits) 
*** ChampSim Multicore Out-of-Order Simulator ***

Warmup Instructions: 50000000
Simulation Instructions: 50000000
Number of CPUs: 1
LLC sets: 2048
LLC ways: 16
Off-chip DRAM Size: 4096 MB Channels: 1 Width: 64-bit Data Rate: 3200 MT/s

CPU 0 runs /home/isaachywong/champsim-pt/ipc1_public/client_008.champsimtrace.xz
CPU 0 Tage branch predictor
CPU 0 L1I FDIP
Basic BTB sets: 256 ways: 4 indirect buffer size: 4096 RAS size: 32
Heartbeat CPU 0 instructions: 10000004 cycles: 2739337 heartbeat IPC: 3.65052 cumulative IPC: 3.65052 (Simulation time: 0 hr 4 min 48 sec) 
Heartbeat CPU 0 instructions: 20000004 cycles: 5534458 heartbeat IPC: 3.57766 cumulative IPC: 3.61372 (Simulation time: 0 hr 9 min 40 sec) 
Heartbeat CPU 0 instructions: 30000003 cycles: 8290734 heartbeat IPC: 3.62808 cumulative IPC: 3.6185 (Simulation time: 0 hr 14 min 26 sec) 
Heartbeat CPU 0 instructions: 40000004 cycles: 11124212 heartbeat IPC: 3.52923 cumulative IPC: 3.59576 (Simulation time: 0 hr 19 min 20 sec) 
Heartbeat CPU 0 instructions: 50000001 cycles: 13931543 heartbeat IPC: 3.5621 cumulative IPC: 3.58898 (Simulation time: 0 hr 24 min 19 sec) 

Warmup complete CPU 0 instructions: 50000001 cycles: 13931543 (Simulation time: 0 hr 24 min 19 sec) 

Heartbeat CPU 0 instructions: 60000003 cycles: 21889136 heartbeat IPC: 1.25666 cumulative IPC: 1.25666 (Simulation time: 0 hr 28 min 48 sec) 
Heartbeat CPU 0 instructions: 70000001 cycles: 29347640 heartbeat IPC: 1.34075 cumulative IPC: 1.29735 (Simulation time: 0 hr 33 min 17 sec) 
Heartbeat CPU 0 instructions: 80000000 cycles: 37046439 heartbeat IPC: 1.2989 cumulative IPC: 1.29786 (Simulation time: 0 hr 37 min 34 sec) 
Heartbeat CPU 0 instructions: 90000001 cycles: 43314123 heartbeat IPC: 1.59549 cumulative IPC: 1.36135 (Simulation time: 0 hr 41 min 42 sec) 
Heartbeat CPU 0 instructions: 100000002 cycles: 50393922 heartbeat IPC: 1.41247 cumulative IPC: 1.37128 (Simulation time: 0 hr 46 min 10 sec) 
Finished CPU 0 instructions: 50000001 cycles: 36462379 cumulative IPC: 1.37128 (Simulation time: 0 hr 46 min 10 sec) 

ChampSim completed all CPUs

Region of Interest Statistics

CPU 0 cumulative IPC: 1.37128 instructions: 50000001 cycles: 36462379
L1D TOTAL     ACCESS:   12476615  HIT:   11607270  MISS:     869345
L1D LOAD      ACCESS:    7731556  HIT:    6979364  MISS:     752192
L1D RFO       ACCESS:    4745059  HIT:    4627906  MISS:     117153
L1D PREFETCH  ACCESS:          0  HIT:          0  MISS:          0
L1D WRITEBACK ACCESS:          0  HIT:          0  MISS:          0
L1D PREFETCH  REQUESTED:          0  ISSUED:          0  USEFUL:          0  USELESS:          0
L1D AVERAGE MISS LATENCY: 42.7116 cycles
L1I TOTAL     ACCESS:    9851002  HIT:    9178612  MISS:     672390
L1I LOAD      ACCESS:    3488510  HIT:    2890864  MISS:     597646
L1I RFO       ACCESS:          0  HIT:          0  MISS:          0
L1I PREFETCH  ACCESS:    6362492  HIT:    6287748  MISS:      74744
L1I WRITEBACK ACCESS:          0  HIT:          0  MISS:          0
L1I PREFETCH  REQUESTED:    9936291  ISSUED:    9936291  USEFUL:      74592  USELESS:        151
L1I AVERAGE MISS LATENCY: 11.6438 cycles
L2C TOTAL     ACCESS:    1709733  HIT:    1396003  MISS:     313730
L2C LOAD      ACCESS:    1256860  HIT:    1057605  MISS:     199255
L2C RFO       ACCESS:     117151  HIT:      14557  MISS:     102594
L2C PREFETCH  ACCESS:     167716  HIT:     156497  MISS:      11219
L2C WRITEBACK ACCESS:     168006  HIT:     167344  MISS:        662
L2C PREFETCH  REQUESTED:          0  ISSUED:          0  USEFUL:       5649  USELESS:       5591
L2C AVERAGE MISS LATENCY: 94.1914 cycles
LLC TOTAL     ACCESS:     442746  HIT:     298271  MISS:     144475
LLC LOAD      ACCESS:     199250  HIT:     151784  MISS:      47466
LLC RFO       ACCESS:     102594  HIT:       9453  MISS:      93141
LLC PREFETCH  ACCESS:      11219  HIT:       7602  MISS:       3617
LLC WRITEBACK ACCESS:     129683  HIT:     129432  MISS:        251
LLC PREFETCH  REQUESTED:          0  ISSUED:          0  USEFUL:       1020  USELESS:       2534
LLC AVERAGE MISS LATENCY: 161.196 cycles
CPU 0 L1I FDIP final stats

DRAM Statistics
 CHANNEL 0
 RQ ROW_BUFFER_HIT:      36882  ROW_BUFFER_MISS:     107322
 DBUS_CONGESTED:      82532
 WQ ROW_BUFFER_HIT:      25390  ROW_BUFFER_MISS:      61992  FULL:          0

 AVG_CONGESTED_CYCLE: 6

CPU 0 Branch Prediction Accuracy: 94.9411% MPKI: 11.8077 Average ROB Occupancy at Mispredict: 175.633
Branch type MPKI
BRANCH_DIRECT_JUMP: 0.01446
BRANCH_INDIRECT: 1.26656
BRANCH_CONDITIONAL: 7.74786
BRANCH_DIRECT_CALL: 0.02568
BRANCH_INDIRECT_CALL: 2.73406
BRANCH_RETURN: 0.01904

