
VirtualMemory physical capacity: 8589934592 num_ppages: 2097152
VirtualMemory page size: 4096 log2_page_size: 12
VirtualMemory initalizing ppage free list ... done
VirtualMemory shuffling ppage free list ... done

 (TAGE 463917)  (LOOP 1248)  (SC 58190)  (TOTAL 523355 bits 511 Kbits)  (TOTAL 523355 bits 511 Kbits) 
*** ChampSim Multicore Out-of-Order Simulator ***

Warmup Instructions: 50000000
Simulation Instructions: 50000000
Number of CPUs: 1
LLC sets: 2048
LLC ways: 16
Off-chip DRAM Size: 4096 MB Channels: 1 Width: 64-bit Data Rate: 3200 MT/s

CPU 0 runs /home/isaachywong/champsim-pt/ipc1_public/spec_gobmk_001.champsimtrace.xz
CPU 0 Tage branch predictor
Basic BTB sets: 2048 ways: 4 indirect buffer size: 4096 RAS size: 32
Heartbeat CPU 0 instructions: 10000002 cycles: 2165683 heartbeat IPC: 4.61748 cumulative IPC: 4.61748 (Simulation time: 0 hr 2 min 7 sec) 
Heartbeat CPU 0 instructions: 20000002 cycles: 4337253 heartbeat IPC: 4.60496 cumulative IPC: 4.61121 (Simulation time: 0 hr 4 min 19 sec) 
Heartbeat CPU 0 instructions: 30000000 cycles: 6528537 heartbeat IPC: 4.56353 cumulative IPC: 4.59521 (Simulation time: 0 hr 6 min 26 sec) 
Heartbeat CPU 0 instructions: 40000000 cycles: 8721911 heartbeat IPC: 4.55919 cumulative IPC: 4.58615 (Simulation time: 0 hr 8 min 30 sec) 
Heartbeat CPU 0 instructions: 50000003 cycles: 10896603 heartbeat IPC: 4.59835 cumulative IPC: 4.58859 (Simulation time: 0 hr 10 min 33 sec) 

Warmup complete CPU 0 instructions: 50000003 cycles: 10896603 (Simulation time: 0 hr 10 min 33 sec) 

Heartbeat CPU 0 instructions: 60000002 cycles: 18211086 heartbeat IPC: 1.36715 cumulative IPC: 1.36715 (Simulation time: 0 hr 13 min 50 sec) 
Heartbeat CPU 0 instructions: 70000000 cycles: 25054732 heartbeat IPC: 1.46121 cumulative IPC: 1.41262 (Simulation time: 0 hr 16 min 51 sec) 
Heartbeat CPU 0 instructions: 80000004 cycles: 32298060 heartbeat IPC: 1.38058 cumulative IPC: 1.40177 (Simulation time: 0 hr 20 min 12 sec) 
Heartbeat CPU 0 instructions: 90000001 cycles: 39204640 heartbeat IPC: 1.44789 cumulative IPC: 1.41303 (Simulation time: 0 hr 23 min 47 sec) 
Heartbeat CPU 0 instructions: 100000000 cycles: 46527644 heartbeat IPC: 1.36556 cumulative IPC: 1.40327 (Simulation time: 0 hr 27 min 0 sec) 
Finished CPU 0 instructions: 50000002 cycles: 35631042 cumulative IPC: 1.40327 (Simulation time: 0 hr 27 min 0 sec) 

ChampSim completed all CPUs

Region of Interest Statistics

CPU 0 cumulative IPC: 1.40327 instructions: 50000002 cycles: 35631042
L1D TOTAL     ACCESS:    9918400  HIT:    9681770  MISS:     236630
L1D LOAD      ACCESS:    6228395  HIT:    6087282  MISS:     141113
L1D RFO       ACCESS:    3690005  HIT:    3594488  MISS:      95517
L1D PREFETCH  ACCESS:          0  HIT:          0  MISS:          0
L1D WRITEBACK ACCESS:          0  HIT:          0  MISS:          0
L1D PREFETCH  REQUESTED:          0  ISSUED:          0  USEFUL:          0  USELESS:          0
L1D AVERAGE MISS LATENCY: 27.4826 cycles
L1I TOTAL     ACCESS:    3460263  HIT:    3135118  MISS:     325145
L1I LOAD      ACCESS:    3460263  HIT:    3135118  MISS:     325145
L1I RFO       ACCESS:          0  HIT:          0  MISS:          0
L1I PREFETCH  ACCESS:          0  HIT:          0  MISS:          0
L1I WRITEBACK ACCESS:          0  HIT:          0  MISS:          0
L1I PREFETCH  REQUESTED:          0  ISSUED:          0  USEFUL:          0  USELESS:          0
L1I AVERAGE MISS LATENCY: 11.9012 cycles
L2C TOTAL     ACCESS:     678945  HIT:     590273  MISS:      88672
L2C LOAD      ACCESS:     466253  HIT:     409413  MISS:      56840
L2C RFO       ACCESS:      95508  HIT:      63764  MISS:      31744
L2C PREFETCH  ACCESS:          0  HIT:          0  MISS:          0
L2C WRITEBACK ACCESS:     117184  HIT:     117096  MISS:         88
L2C PREFETCH  REQUESTED:          0  ISSUED:          0  USEFUL:          0  USELESS:          0
L2C AVERAGE MISS LATENCY: 46.8908 cycles
LLC TOTAL     ACCESS:     129769  HIT:     114344  MISS:      15425
LLC LOAD      ACCESS:      56840  HIT:      44048  MISS:      12792
LLC RFO       ACCESS:      31744  HIT:      29212  MISS:       2532
LLC PREFETCH  ACCESS:          0  HIT:          0  MISS:          0
LLC WRITEBACK ACCESS:      41185  HIT:      41084  MISS:        101
LLC PREFETCH  REQUESTED:          0  ISSUED:          0  USEFUL:          0  USELESS:          0
LLC AVERAGE MISS LATENCY: 154.696 cycles

DRAM Statistics
 CHANNEL 0
 RQ ROW_BUFFER_HIT:        942  ROW_BUFFER_MISS:      14370
 DBUS_CONGESTED:       4330
 WQ ROW_BUFFER_HIT:        845  ROW_BUFFER_MISS:       8181  FULL:          0

 AVG_CONGESTED_CYCLE: 6

CPU 0 Branch Prediction Accuracy: 96.5975% MPKI: 6.33166 Average ROB Occupancy at Mispredict: 161.018
Branch type MPKI
BRANCH_DIRECT_JUMP: 0.0056
BRANCH_INDIRECT: 0
BRANCH_CONDITIONAL: 6.24408
BRANCH_DIRECT_CALL: 0.00722
BRANCH_INDIRECT_CALL: 0.0732
BRANCH_RETURN: 0.00156

