
VirtualMemory physical capacity: 8589934592 num_ppages: 2097152
VirtualMemory page size: 4096 log2_page_size: 12
VirtualMemory initalizing ppage free list ... done
VirtualMemory shuffling ppage free list ... done

 (TAGE 463917)  (LOOP 1248)  (SC 58190)  (TOTAL 523355 bits 511 Kbits)  (TOTAL 523355 bits 511 Kbits) 
*** ChampSim Multicore Out-of-Order Simulator ***

Warmup Instructions: 50000000
Simulation Instructions: 50000000
Number of CPUs: 1
LLC sets: 2048
LLC ways: 16
Off-chip DRAM Size: 4096 MB Channels: 1 Width: 64-bit Data Rate: 3200 MT/s

CPU 0 runs /home/isaachywong/champsim-pt/ipc1_public/spec_x264_001.champsimtrace.xz
CPU 0 Tage branch predictor
Basic BTB sets: 2048 ways: 4 indirect buffer size: 4096 RAS size: 32
Heartbeat CPU 0 instructions: 10000000 cycles: 2108560 heartbeat IPC: 4.74257 cumulative IPC: 4.74257 (Simulation time: 0 hr 2 min 9 sec) 
Heartbeat CPU 0 instructions: 20000000 cycles: 4186060 heartbeat IPC: 4.81348 cumulative IPC: 4.77776 (Simulation time: 0 hr 4 min 14 sec) 
Heartbeat CPU 0 instructions: 30000001 cycles: 6282424 heartbeat IPC: 4.77016 cumulative IPC: 4.77523 (Simulation time: 0 hr 6 min 22 sec) 
Heartbeat CPU 0 instructions: 40000002 cycles: 8382553 heartbeat IPC: 4.76161 cumulative IPC: 4.77182 (Simulation time: 0 hr 8 min 29 sec) 
Heartbeat CPU 0 instructions: 50000004 cycles: 10462591 heartbeat IPC: 4.80761 cumulative IPC: 4.77893 (Simulation time: 0 hr 10 min 34 sec) 

Warmup complete CPU 0 instructions: 50000004 cycles: 10462591 (Simulation time: 0 hr 10 min 34 sec) 

Heartbeat CPU 0 instructions: 60000004 cycles: 13626702 heartbeat IPC: 3.16045 cumulative IPC: 3.16045 (Simulation time: 0 hr 13 min 13 sec) 
Heartbeat CPU 0 instructions: 70000001 cycles: 16755749 heartbeat IPC: 3.19586 cumulative IPC: 3.17805 (Simulation time: 0 hr 15 min 48 sec) 
Heartbeat CPU 0 instructions: 80000002 cycles: 20010446 heartbeat IPC: 3.07248 cumulative IPC: 3.14207 (Simulation time: 0 hr 18 min 23 sec) 
Heartbeat CPU 0 instructions: 90000000 cycles: 23204548 heartbeat IPC: 3.13077 cumulative IPC: 3.13923 (Simulation time: 0 hr 20 min 59 sec) 
Heartbeat CPU 0 instructions: 100000004 cycles: 26366422 heartbeat IPC: 3.16268 cumulative IPC: 3.1439 (Simulation time: 0 hr 23 min 32 sec) 
Finished CPU 0 instructions: 50000000 cycles: 15903831 cumulative IPC: 3.1439 (Simulation time: 0 hr 23 min 32 sec) 

ChampSim completed all CPUs

Region of Interest Statistics

CPU 0 cumulative IPC: 3.1439 instructions: 50000000 cycles: 15903831
L1D TOTAL     ACCESS:    6546817  HIT:    6478604  MISS:      68213
L1D LOAD      ACCESS:    3675466  HIT:    3627858  MISS:      47608
L1D RFO       ACCESS:    2871351  HIT:    2850746  MISS:      20605
L1D PREFETCH  ACCESS:          0  HIT:          0  MISS:          0
L1D WRITEBACK ACCESS:          0  HIT:          0  MISS:          0
L1D PREFETCH  REQUESTED:          0  ISSUED:          0  USEFUL:          0  USELESS:          0
L1D AVERAGE MISS LATENCY: 93.1308 cycles
L1I TOTAL     ACCESS:    1236182  HIT:     975537  MISS:     260645
L1I LOAD      ACCESS:    1236182  HIT:     975537  MISS:     260645
L1I RFO       ACCESS:          0  HIT:          0  MISS:          0
L1I PREFETCH  ACCESS:          0  HIT:          0  MISS:          0
L1I WRITEBACK ACCESS:          0  HIT:          0  MISS:          0
L1I PREFETCH  REQUESTED:          0  ISSUED:          0  USEFUL:          0  USELESS:          0
L1I AVERAGE MISS LATENCY: 11.2626 cycles
L2C TOTAL     ACCESS:     354141  HIT:     318333  MISS:      35808
L2C LOAD      ACCESS:     308247  HIT:     286134  MISS:      22113
L2C RFO       ACCESS:      20097  HIT:       6556  MISS:      13541
L2C PREFETCH  ACCESS:          0  HIT:          0  MISS:          0
L2C WRITEBACK ACCESS:      25797  HIT:      25643  MISS:        154
L2C PREFETCH  REQUESTED:          0  ISSUED:          0  USEFUL:          0  USELESS:          0
L2C AVERAGE MISS LATENCY: 157.93 cycles
LLC TOTAL     ACCESS:      49525  HIT:      21806  MISS:      27719
LLC LOAD      ACCESS:      22112  HIT:       7476  MISS:      14636
LLC RFO       ACCESS:      13541  HIT:        537  MISS:      13004
LLC PREFETCH  ACCESS:          0  HIT:          0  MISS:          0
LLC WRITEBACK ACCESS:      13872  HIT:      13793  MISS:         79
LLC PREFETCH  REQUESTED:          0  ISSUED:          0  USEFUL:          0  USELESS:          0
LLC AVERAGE MISS LATENCY: 178.293 cycles

DRAM Statistics
 CHANNEL 0
 RQ ROW_BUFFER_HIT:       2495  ROW_BUFFER_MISS:      25145
 DBUS_CONGESTED:      12950
 WQ ROW_BUFFER_HIT:        664  ROW_BUFFER_MISS:      11529  FULL:          0

 AVG_CONGESTED_CYCLE: 6

CPU 0 Branch Prediction Accuracy: 97.6314% MPKI: 1.45042 Average ROB Occupancy at Mispredict: 197.018
Branch type MPKI
BRANCH_DIRECT_JUMP: 0.00056
BRANCH_INDIRECT: 0
BRANCH_CONDITIONAL: 1.38316
BRANCH_DIRECT_CALL: 8e-05
BRANCH_INDIRECT_CALL: 0.06662
BRANCH_RETURN: 0

